=
 OpenBabel12272317403D

 40 44  0  0  0  0  0  0  0  0999 V2000
  168.8710  143.9500  147.1850 C   0  0  0  0  0  0  0  0  0  0  0  0
  169.7910  144.9240  146.8700 C   0  0  0  0  0  0  0  0  0  0  0  0
  170.3240  144.9930  145.5860 C   0  0  0  0  0  0  0  0  0  0  0  0
  169.9650  144.1100  144.5900 C   0  0  0  0  0  0  0  0  0  0  0  0
  170.4760  144.1670  143.3380 N   0  0  0  0  0  0  0  0  0  0  0  0
  171.3670  145.1320  143.0770 C   0  0  0  0  0  0  0  0  0  0  0  0
  171.7360  146.0110  144.0340 N   0  0  0  0  0  0  0  0  0  0  0  0
  169.0360  143.1380  144.9350 C   0  0  0  0  0  0  0  0  0  0  0  0
  171.2550  145.9820  145.2710 C   0  0  0  0  0  0  0  0  0  0  0  0
  168.5020  143.0590  146.2020 C   0  0  0  0  0  0  0  0  0  0  0  0
  167.7270  144.4000  150.5570 C   0  0  0  0  0  0  0  0  0  0  0  0
  168.3030  144.7880  149.4540 O   0  0  0  0  0  0  0  0  0  0  0  0
  168.3230  143.8910  148.5340 C   0  0  0  0  0  0  0  0  0  0  0  0
  167.6950  142.7640  149.0560 C   0  0  0  0  0  0  0  0  0  0  0  0
  167.3200  143.0910  150.3350 C   0  0  0  0  0  0  0  0  0  0  0  0
  167.5210  145.1690  151.8300 C   0  0  0  0  0  0  0  0  0  0  0  0
  167.2690  146.5710  151.5180 N   0  0  0  0  0  0  0  0  0  0  0  0
  165.8390  146.7500  151.3930 C   0  0  0  0  0  0  0  0  0  0  0  0
  165.4260  147.1170  149.9950 C   0  0  0  0  0  0  0  0  0  0  0  0
  163.9700  144.6720  150.4820 C   0  0  0  0  0  0  0  0  0  0  0  0
  164.3270  145.9140  149.2890 S   0  0  0  0  0  0  0  0  0  0  0  0
  165.0570  145.2540  148.1450 O   0  0  0  0  0  0  0  0  0  0  0  0
  163.0490  146.5530  148.8080 O   0  0  0  0  0  0  0  0  0  0  0  0
  171.6100  146.8730  146.2970 N   0  0  0  0  0  0  0  0  0  0  0  0
  171.2040  148.2070  146.2840 C   0  0  0  0  0  0  0  0  0  0  0  0
  170.1200  148.6540  145.5230 C   0  0  0  0  0  0  0  0  0  0  0  0
  169.7700  149.9700  145.5540 C   0  0  0  0  0  0  0  0  0  0  0  0
  168.4100  150.5960  144.6030 Cl  0  0  0  0  0  0  0  0  0  0  0  0
  170.4530  150.8980  146.3170 C   0  0  0  0  0  0  0  0  0  0  0  0
  171.5230  150.4690  147.0700 C   0  0  0  0  0  0  0  0  0  0  0  0
  171.8730  149.1430  147.0380 C   0  0  0  0  0  0  0  0  0  0  0  0
  170.0580  152.2480  146.3200 O   0  0  0  0  0  0  0  0  0  0  0  0
  169.9980  152.9080  147.5790 C   0  0  0  0  0  0  0  0  0  0  0  0
  168.6800  152.5880  148.1740 C   0  0  0  0  0  0  0  0  0  0  0  0
  167.4920  152.9350  147.5650 C   0  0  0  0  0  0  0  0  0  0  0  0
  166.2810  152.6020  148.1790 C   0  0  0  0  0  0  0  0  0  0  0  0
  165.0840  152.9200  147.6190 F   0  0  0  0  0  0  0  0  0  0  0  0
  166.2670  151.9350  149.3810 C   0  0  0  0  0  0  0  0  0  0  0  0
  167.4390  151.5900  149.9850 C   0  0  0  0  0  0  0  0  0  0  0  0
  168.6360  151.9210  149.3750 C   0  0  0  0  0  0  0  0  0  0  0  0
  1 13  1  0  0  0  0
  2  1  1  0  0  0  0
  3  2  2  0  0  0  0
  4  8  2  0  0  0  0
  4  3  1  0  0  0  0
  5  4  1  0  0  0  0
  6  5  2  0  0  0  0
  6  7  1  0  0  0  0
  7  9  2  0  0  0  0
  8 10  1  0  0  0  0
  9  3  1  0  0  0  0
  9 24  1  0  0  0  0
 10  1  2  0  0  0  0
 11 16  1  0  0  0  0
 12 11  1  0  0  0  0
 13 14  2  0  0  0  0
 13 12  1  0  0  0  0
 14 15  1  0  0  0  0
 15 11  2  0  0  0  0
 17 16  1  0  0  0  0
 18 17  1  0  0  0  0
 19 18  1  0  0  0  0
 21 19  1  0  0  0  0
 21 20  1  0  0  0  0
 22 21  2  0  0  0  0
 23 21  2  0  0  0  0
 25 24  1  0  0  0  0
 25 31  2  0  0  0  0
 26 27  2  0  0  0  0
 26 25  1  0  0  0  0
 27 29  1  0  0  0  0
 28 27  1  0  0  0  0
 29 32  1  0  0  0  0
 29 30  2  0  0  0  0
 31 30  1  0  0  0  0
 32 33  1  0  0  0  0
 33 34  1  0  0  0  0
 34 40  1  0  0  0  0
 35 34  2  0  0  0  0
 35 36  1  0  0  0  0
 36 38  2  0  0  0  0
 37 36  1  0  0  0  0
 38 39  1  0  0  0  0
 40 39  2  0  0  0  0
M  END
>  <REMARK>
 VINA RESULT:      -8.4      0.000      0.000
  Name = 
                            x       y       z     vdW  Elec       q    Type
                         _______ _______ _______ _____ _____    ______ ____

>  <Score> 
-8.4

>  <TORSDO>
F 11

$$$$
=
 OpenBabel12272317403D

 37 41  0  0  0  0  0  0  0  0999 V2000
  201.8650   84.0020  147.7350 C   0  0  0  0  0  0  0  0  0  0  0  0
  202.4500   84.9770  148.7050 C   0  0  0  0  0  0  0  0  0  0  0  0
  202.1040   84.9310  150.0620 C   0  0  0  0  0  0  0  0  0  0  0  0
  202.6360   85.8260  150.9730 C   0  0  0  0  0  0  0  0  0  0  0  0
  203.5210   86.7760  150.5300 C   0  0  0  0  0  0  0  0  0  0  0  0
  203.8730   86.8300  149.1770 C   0  0  0  0  0  0  0  0  0  0  0  0
  203.3330   85.9310  148.2840 C   0  0  0  0  0  0  0  0  0  0  0  0
  204.0860   87.7070  151.4210 N   0  0  0  0  0  0  0  0  0  0  0  0
  203.6800   89.0470  151.5710 C   0  0  0  0  0  0  0  0  0  0  0  0
  202.7470   89.4880  150.8770 O   0  0  0  0  0  0  0  0  0  0  0  0
  204.3620   89.9110  152.5430 C   0  0  0  0  0  0  0  0  0  0  0  0
  204.1720   91.2750  152.5480 C   0  0  0  0  0  0  0  0  0  0  0  0
  204.8190   92.1010  153.4730 C   0  0  0  0  0  0  0  0  0  0  0  0
  205.6710   91.5690  154.4090 C   0  0  0  0  0  0  0  0  0  0  0  0
  205.8660   90.2090  154.4100 C   0  0  0  0  0  0  0  0  0  0  0  0
  205.2190   89.3820  153.4850 C   0  0  0  0  0  0  0  0  0  0  0  0
  206.3510   92.4430  155.3810 C   0  0  0  0  0  0  0  0  0  0  0  0
  206.3950   91.9250  156.7110 N   0  0  0  0  0  0  0  0  0  0  0  0
  207.6810   92.0840  157.3600 C   0  0  0  0  0  0  0  0  0  0  0  0
  208.0210   93.5480  157.5490 C   0  0  0  0  0  0  0  0  0  0  0  0
  206.8190   94.3200  157.8450 N   0  0  0  0  0  0  0  0  0  0  0  0
  207.0960   95.4000  158.7440 C   0  0  0  0  0  0  0  0  0  0  0  0
  205.8110   93.4620  158.4750 C   0  0  0  0  0  0  0  0  0  0  0  0
  205.3050   92.4930  157.4550 C   0  0  0  0  0  0  0  0  0  0  0  0
  201.2010   83.9380  150.4290 N   0  0  0  0  0  0  0  0  0  0  0  0
  201.3320   82.8890  151.3400 C   0  0  0  0  0  0  0  0  0  0  0  0
  202.2520   81.9300  151.0540 N   0  0  0  0  0  0  0  0  0  0  0  0
  202.5070   80.8670  151.8060 C   0  0  0  0  0  0  0  0  0  0  0  0
  201.7750   80.7140  152.9880 C   0  0  0  0  0  0  0  0  0  0  0  0
  200.8400   81.6820  153.2840 C   0  0  0  0  0  0  0  0  0  0  0  0
  200.6490   82.7270  152.4620 N   0  0  0  0  0  0  0  0  0  0  0  0
  203.5040   79.8600  151.4630 C   0  0  0  0  0  0  0  0  0  0  0  0
  203.6970   79.5110  150.1450 C   0  0  0  0  0  0  0  0  0  0  0  0
  204.6280   78.5690  149.8080 N   0  0  0  0  0  0  0  0  0  0  0  0
  205.3700   77.9650  150.7250 C   0  0  0  0  0  0  0  0  0  0  0  0
  205.2240   78.2730  152.0640 C   0  0  0  0  0  0  0  0  0  0  0  0
  204.2740   79.2350  152.4150 C   0  0  0  0  0  0  0  0  0  0  0  0
  1  2  1  0  0  0  0
  2  3  1  0  0  0  0
  3 25  1  0  0  0  0
  3  4  2  0  0  0  0
  5  4  1  0  0  0  0
  5  8  1  0  0  0  0
  6  5  2  0  0  0  0
  7  2  2  0  0  0  0
  7  6  1  0  0  0  0
  8  9  1  0  0  0  0
  9 11  1  0  0  0  0
 10  9  2  0  0  0  0
 11 12  2  0  0  0  0
 11 16  1  0  0  0  0
 12 13  1  0  0  0  0
 13 14  2  0  0  0  0
 14 15  1  0  0  0  0
 14 17  1  0  0  0  0
 16 15  2  0  0  0  0
 17 18  1  0  0  0  0
 18 19  1  0  0  0  0
 18 24  1  0  0  0  0
 19 20  1  0  0  0  0
 20 21  1  0  0  0  0
 21 23  1  0  0  0  0
 21 22  1  0  0  0  0
 24 23  1  0  0  0  0
 25 26  1  0  0  0  0
 26 31  1  0  0  0  0
 27 26  2  0  0  0  0
 27 28  1  0  0  0  0
 28 29  2  0  0  0  0
 29 30  1  0  0  0  0
 31 30  2  0  0  0  0
 32 28  1  0  0  0  0
 32 37  2  0  0  0  0
 33 32  1  0  0  0  0
 34 33  2  0  0  0  0
 34 35  1  0  0  0  0
 35 36  2  0  0  0  0
 36 37  1  0  0  0  0
M  END
>  <REMARK>
 VINA RESULT:      -7.8      0.000      0.000
  Name = 
                            x       y       z     vdW  Elec       q    Type
                         _______ _______ _______ _____ _____    ______ ____

>  <Score> 
-7.8

>  <TORSDO>
F 7

$$$$
=
 OpenBabel12272317403D

 25 27  0  0  1  0  0  0  0  0999 V2000
  169.1540  150.5540  147.4380 O   0  0  0  0  0  0  0  0  0  0  0  0
  166.7830  154.9260  150.2890 C   0  0  0  0  0  0  0  0  0  0  0  0
  168.0580  154.6250  150.6710 N   0  0  0  0  0  0  0  0  0  0  0  0
  168.4700  153.5120  150.0780 C   0  0  0  0  0  0  0  0  0  0  0  0
  169.6780  152.8010  150.1400 O   0  0  0  0  0  0  0  0  0  0  0  0
  169.7720  151.5820  149.4270 C   0  0  0  0  0  0  0  0  0  0  0  0
  169.1390  152.0120  147.9250 C   0  0  2  0  0  0  0  0  0  0  0  0
  167.5610  151.8670  148.4950 C   0  0  0  0  0  0  0  0  0  0  0  0
  167.4660  153.0770  149.3040 N   0  0  0  0  0  0  0  0  0  0  0  0
  166.4330  153.9290  149.4230 C   0  0  0  0  0  0  0  0  0  0  0  0
  165.2280  155.9990  151.0020 O   0  0  0  0  0  0  0  0  0  0  0  0
  166.0040  156.0520  150.7190 N   0  0  0  0  0  0  0  0  0  0  0  0
  166.6560  157.2870  150.6290 O   0  0  0  0  0  0  0  0  0  0  0  0
  169.5160  150.6940  146.0970 C   0  0  0  0  0  0  0  0  0  0  0  0
  169.6430  149.3460  145.4520 C   0  0  0  0  0  0  0  0  0  0  0  0
  168.5430  148.5220  145.3020 C   0  0  0  0  0  0  0  0  0  0  0  0
  168.6090  147.2840  144.7190 C   0  0  0  0  0  0  0  0  0  0  0  0
  169.8420  146.8280  144.2530 C   0  0  0  0  0  0  0  0  0  0  0  0
  170.9520  147.6190  144.3850 C   0  0  0  0  0  0  0  0  0  0  0  0
  170.8470  148.8650  144.9800 C   0  0  0  0  0  0  0  0  0  0  0  0
  169.9070  145.5680  143.6590 O   0  0  0  0  0  0  0  0  0  0  0  0
  170.3600  144.4710  144.4560 C   0  0  0  0  0  0  0  0  0  0  0  0
  169.5620  143.3730  144.2060 F   0  0  0  0  0  0  0  0  0  0  0  0
  170.2450  144.7830  145.8070 F   0  0  0  0  0  0  0  0  0  0  0  0
  171.6740  144.2020  144.1120 F   0  0  0  0  0  0  0  0  0  0  0  0
  2  3  1  0  0  0  0
  2 12  1  0  0  0  0
  4  5  1  0  0  0  0
  4  3  2  0  0  0  0
  6  5  1  0  0  0  0
  7  1  1  6  0  0  0
  7  8  1  0  0  0  0
  7  6  1  0  0  0  0
  8  9  1  0  0  0  0
  9 10  1  0  0  0  0
  9  4  1  0  0  0  0
 10  2  2  0  0  0  0
 12 11  2  0  0  0  0
 13 12  2  0  0  0  0
 14  1  1  0  0  0  0
 15 14  1  0  0  0  0
 16 15  1  0  0  0  0
 17 16  2  0  0  0  0
 18 19  2  0  0  0  0
 18 17  1  0  0  0  0
 19 20  1  0  0  0  0
 20 15  2  0  0  0  0
 21 18  1  0  0  0  0
 21 22  1  0  0  0  0
 22 24  1  0  0  0  0
 23 22  1  0  0  0  0
 25 22  1  0  0  0  0
M  END
>  <REMARK>
 VINA RESULT:      -8.0      0.000      0.000
  Name = 
                            x       y       z     vdW  Elec       q    Type
                         _______ _______ _______ _____ _____    ______ ____

>  <Score> 
-8.0

>  <TORSDO>
F 6

$$$$
ZINC000000623204
 OpenBabel12272317403D

 27 28  0  0  1  0  0  0  0  0999 V2000
  170.0220  147.3550  145.4020 C   0  0  0  0  0  0  0  0  0  0  0  0
  171.2390  147.0060  146.0080 C   0  0  0  0  0  0  0  0  0  0  0  0
  171.8790  145.3940  145.9500 Cl  0  0  0  0  0  0  0  0  0  0  0  0
  171.9740  147.9630  146.7130 C   0  0  0  0  0  0  0  0  0  0  0  0
  171.5060  149.2640  146.8270 C   0  0  0  0  0  0  0  0  0  0  0  0
  170.2910  149.6380  146.2330 C   0  0  0  0  0  0  0  0  0  0  0  0
  169.5640  148.6680  145.5290 C   0  0  0  0  0  0  0  0  0  0  0  0
  169.7690  151.0010  146.3410 C   0  0  0  0  0  0  0  0  0  0  0  0
  168.8640  151.2970  147.3170 N   0  0  0  0  0  0  0  0  0  0  0  0
  168.5560  150.5680  147.9680 H   0  0  0  0  0  0  0  0  0  0  0  0
  170.1160  151.9100  145.5970 O   0  0  0  0  0  0  0  0  0  0  0  0
  168.2390  152.5970  147.4570 C   0  0  2  0  0  0  0  0  0  0  0  0
  168.5320  153.1040  148.8760 C   0  0  0  0  0  0  0  0  0  0  0  0
  166.7420  152.3670  147.2990 C   0  0  0  0  0  0  0  0  0  0  0  0
  166.1820  151.9310  146.0930 C   0  0  0  0  0  0  0  0  0  0  0  0
  164.8070  151.7420  145.9810 C   0  0  0  0  0  0  0  0  0  0  0  0
  163.9790  151.9880  147.0700 C   0  0  0  0  0  0  0  0  0  0  0  0
  164.5260  152.4220  148.2720 C   0  0  0  0  0  0  0  0  0  0  0  0
  165.9010  152.6110  148.3850 C   0  0  0  0  0  0  0  0  0  0  0  0
  169.0610  146.1540  144.4680 S   0  0  0  0  0  0  0  0  0  0  0  0
  167.9330  146.8180  143.9110 O   0  0  0  0  0  0  0  0  0  0  0  0
  169.9150  145.5020  143.5370 O   0  0  0  0  0  0  0  0  0  0  0  0
  168.5300  145.0480  145.5920 N   0  0  0  0  0  0  0  0  0  0  0  0
  166.1470  144.5940  145.8870 C   0  0  0  0  0  0  0  0  0  0  0  0
  167.3730  145.3190  146.4610 C   0  0  0  0  0  0  0  0  0  0  0  0
  168.7420  143.6250  145.3150 C   0  0  0  0  0  0  0  0  0  0  0  0
  169.3800  143.0750  146.5940 C   0  0  0  0  0  0  0  0  0  0  0  0
  1  7  2  0  0  0  0
  1  2  1  0  0  0  0
  2  4  2  0  0  0  0
  3  2  1  0  0  0  0
  4  5  1  0  0  0  0
  6  8  1  0  0  0  0
  6  5  2  0  0  0  0
  7  6  1  0  0  0  0
  8  9  1  0  0  0  0
  9 12  1  0  0  0  0
  9 10  1  0  0  0  0
 11  8  2  0  0  0  0
 12 14  1  1  0  0  0
 12 13  1  0  0  0  0
 14 19  2  0  0  0  0
 15 14  1  0  0  0  0
 16 15  2  0  0  0  0
 16 17  1  0  0  0  0
 17 18  2  0  0  0  0
 18 19  1  0  0  0  0
 20  1  1  0  0  0  0
 20 23  1  0  0  0  0
 21 20  2  0  0  0  0
 22 20  2  0  0  0  0
 23 25  1  0  0  0  0
 24 25  1  0  0  0  0
 26 23  1  0  0  0  0
 26 27  1  0  0  0  0
M  END
>  <REMARK>
 VINA RESULT:      -7.5      0.000      0.000
  Name = ZINC000000623204
                            x       y       z     vdW  Elec       q    Type
                         _______ _______ _______ _____ _____    ______ ____

>  <Score> 
-7.5

>  <TORSDO>
F 7

$$$$
ZINC000006087141
 OpenBabel12272317403D

 27 29  0  0  0  0  0  0  0  0999 V2000
  163.2490  159.5010  156.4160 C   0  0  0  0  0  0  0  0  0  0  0  0
  163.0890  160.7650  155.6550 N   0  0  0  0  0  0  0  0  0  0  0  0
  164.0430  161.7630  155.7460 C   0  0  0  0  0  0  0  0  0  0  0  0
  164.9920  161.5720  156.5100 O   0  0  0  0  0  0  0  0  0  0  0  0
  163.8720  162.9480  154.9360 C   0  0  0  0  0  0  0  0  0  0  0  0
  164.7930  164.0070  154.9690 C   0  0  0  0  0  0  0  0  0  0  0  0
  164.5910  165.1280  154.1730 C   0  0  0  0  0  0  0  0  0  0  0  0
  165.7320  166.4280  154.2130 Cl  0  0  0  0  0  0  0  0  0  0  0  0
  163.4730  165.2110  153.3400 C   0  0  0  0  0  0  0  0  0  0  0  0
  162.5580  164.1650  153.3020 C   0  0  0  0  0  0  0  0  0  0  0  0
  161.1810  164.3030  152.2550 Cl  0  0  0  0  0  0  0  0  0  0  0  0
  162.7500  163.0150  154.1000 C   0  0  0  0  0  0  0  0  0  0  0  0
  161.8480  161.9340  154.0680 N   0  0  0  0  0  0  0  0  0  0  0  0
  162.0180  160.8910  154.7870 C   0  0  0  0  0  0  0  0  0  0  0  0
  161.9500  159.9860  158.4520 N   0  0  0  0  0  0  0  0  0  0  0  0
  162.8260  160.4750  158.7230 H   0  0  0  0  0  0  0  0  0  0  0  0
  161.9940  159.3270  157.2510 C   0  0  0  0  0  0  0  0  0  0  0  0
  161.1000  158.5840  156.9010 O   0  0  0  0  0  0  0  0  0  0  0  0
  161.3980  159.8620  160.7890 C   0  0  0  0  0  0  0  0  0  0  0  0
  160.9530  159.9640  159.4630 C   0  0  0  0  0  0  0  0  0  0  0  0
  159.5860  160.0620  159.1900 C   0  0  0  0  0  0  0  0  0  0  0  0
  158.6660  160.0360  160.2380 C   0  0  0  0  0  0  0  0  0  0  0  0
  157.1850  160.1430  159.9460 C   0  0  0  0  0  0  0  0  0  0  0  0
  159.1150  159.9310  161.5560 C   0  0  0  0  0  0  0  0  0  0  0  0
  160.4780  159.8440  161.8350 C   0  0  0  0  0  0  0  0  0  0  0  0
  163.5630  160.7950  161.6770 C   0  0  0  0  0  0  0  0  0  0  0  0
  162.7700  159.7810  161.0210 O   0  0  0  0  0  0  0  0  0  0  0  0
  1 17  1  0  0  0  0
  2  3  1  0  0  0  0
  2  1  1  0  0  0  0
  3  4  2  0  0  0  0
  5  6  1  0  0  0  0
  5  3  1  0  0  0  0
  7  8  1  0  0  0  0
  7  6  2  0  0  0  0
  9  7  1  0  0  0  0
 10  9  2  0  0  0  0
 10 12  1  0  0  0  0
 11 10  1  0  0  0  0
 12  5  2  0  0  0  0
 13 12  1  0  0  0  0
 13 14  2  0  0  0  0
 14  2  1  0  0  0  0
 15 16  1  0  0  0  0
 15 20  1  0  0  0  0
 17 15  1  0  0  0  0
 18 17  2  0  0  0  0
 19 27  1  0  0  0  0
 19 25  2  0  0  0  0
 20 19  1  0  0  0  0
 21 20  2  0  0  0  0
 21 22  1  0  0  0  0
 22 24  2  0  0  0  0
 23 22  1  0  0  0  0
 24 25  1  0  0  0  0
 27 26  1  0  0  0  0
M  END
>  <REMARK>
 VINA RESULT:      -7.4      0.000      0.000
  Name = ZINC000006087141
                            x       y       z     vdW  Elec       q    Type
                         _______ _______ _______ _____ _____    ______ ____

>  <Score> 
-7.4

>  <TORSDO>
F 4

$$$$
ZINC000006083766
 OpenBabel12272317403D

 27 31  0  0  0  0  0  0  0  0999 V2000
  167.6470  151.6170  145.3770 O   0  0  0  0  0  0  0  0  0  0  0  0
  166.5050  151.8640  146.0670 C   0  0  0  0  0  0  0  0  0  0  0  0
  166.5750  152.3610  147.3800 C   0  0  0  0  0  0  0  0  0  0  0  0
  167.6760  152.6930  148.2210 C   0  0  0  0  0  0  0  0  0  0  0  0
  169.1390  152.5570  147.8240 C   0  0  0  0  0  0  0  0  0  0  0  0
  169.9960  153.3240  148.8490 C   0  0  0  0  0  0  0  0  0  0  0  0
  169.5790  153.0050  150.2950 C   0  0  0  0  0  0  0  0  0  0  0  0
  168.1710  153.5490  150.5960 C   0  0  0  0  0  0  0  0  0  0  0  0
  167.2750  153.1170  149.4550 C   0  0  0  0  0  0  0  0  0  0  0  0
  165.5470  153.1540  149.6210 S   0  0  0  0  0  0  0  0  0  0  0  0
  165.3560  152.5670  148.0050 C   0  0  0  0  0  0  0  0  0  0  0  0
  164.1710  152.3190  147.3970 N   0  0  0  0  0  0  0  0  0  0  0  0
  164.2090  151.8610  146.1700 C   0  0  0  0  0  0  0  0  0  0  0  0
  165.3550  151.6200  145.4770 N   0  0  0  0  0  0  0  0  0  0  0  0
  167.8820  150.3680  144.6660 C   0  0  0  0  0  0  0  0  0  0  0  0
  170.1900  150.8840  144.8480 O   0  0  0  0  0  0  0  0  0  0  0  0
  169.3580  149.9990  144.7910 C   0  0  0  0  0  0  0  0  0  0  0  0
  169.7620  148.5970  144.8920 C   0  0  0  0  0  0  0  0  0  0  0  0
  168.8270  147.5490  144.7690 C   0  0  0  0  0  0  0  0  0  0  0  0
  169.2490  146.2320  144.8690 C   0  0  0  0  0  0  0  0  0  0  0  0
  168.3300  145.2150  144.7220 O   0  0  0  0  0  0  0  0  0  0  0  0
  168.8330  143.8670  144.4690 C   0  0  0  0  0  0  0  0  0  0  0  0
  169.9580  143.6100  145.4840 C   0  0  0  0  0  0  0  0  0  0  0  0
  170.9860  144.6180  145.2450 O   0  0  0  0  0  0  0  0  0  0  0  0
  170.5920  145.9280  145.1120 C   0  0  0  0  0  0  0  0  0  0  0  0
  171.5300  146.9460  145.2270 C   0  0  0  0  0  0  0  0  0  0  0  0
  171.1150  148.2700  145.1190 C   0  0  0  0  0  0  0  0  0  0  0  0
  1  2  1  0  0  0  0
  2  3  1  0  0  0  0
  3 11  2  0  0  0  0
  3  4  1  0  0  0  0
  4  9  2  0  0  0  0
  5  4  1  0  0  0  0
  5  6  1  0  0  0  0
  6  7  1  0  0  0  0
  7  8  1  0  0  0  0
  9 10  1  0  0  0  0
  9  8  1  0  0  0  0
 11 10  1  0  0  0  0
 12 11  1  0  0  0  0
 13 12  2  0  0  0  0
 14  2  2  0  0  0  0
 14 13  1  0  0  0  0
 15 17  1  0  0  0  0
 15  1  1  0  0  0  0
 17 16  2  0  0  0  0
 17 18  1  0  0  0  0
 18 27  2  0  0  0  0
 19 20  2  0  0  0  0
 19 18  1  0  0  0  0
 20 25  1  0  0  0  0
 21 20  1  0  0  0  0
 22 21  1  0  0  0  0
 22 23  1  0  0  0  0
 24 23  1  0  0  0  0
 25 26  2  0  0  0  0
 25 24  1  0  0  0  0
 27 26  1  0  0  0  0
M  END
>  <REMARK>
 VINA RESULT:      -8.6      0.000      0.000
  Name = ZINC000006083766
                            x       y       z     vdW  Elec       q    Type
                         _______ _______ _______ _____ _____    ______ ____

>  <Score> 
-8.6

>  <TORSDO>
F 4

$$$$
=
 OpenBabel12272317403D

 29 31  0  0  0  0  0  0  0  0999 V2000
  169.0910  152.2180  147.9640 C   0  0  0  0  0  0  0  0  0  0  0  0
  169.8940  151.1370  147.6370 C   0  0  0  0  0  0  0  0  0  0  0  0
  170.7910  150.6060  148.5410 C   0  0  0  0  0  0  0  0  0  0  0  0
  171.6060  149.5150  148.2200 C   0  0  0  0  0  0  0  0  0  0  0  0
  171.5190  148.9490  146.9670 C   0  0  0  0  0  0  0  0  0  0  0  0
  170.6160  149.4970  146.0820 C   0  0  0  0  0  0  0  0  0  0  0  0
  170.8760  151.1590  149.7630 N   0  0  0  0  0  0  0  0  0  0  0  0
  170.1000  152.2070  150.0870 C   0  0  0  0  0  0  0  0  0  0  0  0
  169.8160  150.5610  146.3850 C   0  0  0  0  0  0  0  0  0  0  0  0
  169.2290  152.7170  149.1970 N   0  0  0  0  0  0  0  0  0  0  0  0
  168.2010  152.7020  146.9830 N   0  0  0  0  0  0  0  0  0  0  0  0
  164.7400  152.6170  148.3460 C   0  0  0  0  0  0  0  0  0  0  0  0
  166.0980  152.8100  148.2040 C   0  0  0  0  0  0  0  0  0  0  0  0
  166.7940  152.4730  147.0630 C   0  0  0  0  0  0  0  0  0  0  0  0
  166.1220  151.9140  145.9960 C   0  0  0  0  0  0  0  0  0  0  0  0
  164.7640  151.7090  146.1120 C   0  0  0  0  0  0  0  0  0  0  0  0
  164.0880  152.0520  147.2580 C   0  0  0  0  0  0  0  0  0  0  0  0
  163.4390  153.2660  150.5740 C   0  0  0  0  0  0  0  0  0  0  0  0
  164.0270  152.9760  149.5520 C   0  0  0  0  0  0  0  0  0  0  0  0
  170.5440  148.9090  144.8220 O   0  0  0  0  0  0  0  0  0  0  0  0
  169.8550  147.7240  144.5420 C   0  0  0  0  0  0  0  0  0  0  0  0
  168.3680  147.8870  144.7690 C   0  0  0  0  0  0  0  0  0  0  0  0
  167.6740  146.9330  143.9990 O   0  0  0  0  0  0  0  0  0  0  0  0
  167.2070  145.8850  144.7760 C   0  0  0  0  0  0  0  0  0  0  0  0
  172.3190  147.8490  146.6000 O   0  0  0  0  0  0  0  0  0  0  0  0
  171.9820  146.5480  147.0410 C   0  0  0  0  0  0  0  0  0  0  0  0
  172.4900  145.5780  145.9870 C   0  0  0  0  0  0  0  0  0  0  0  0
  172.0020  144.3030  146.1750 O   0  0  0  0  0  0  0  0  0  0  0  0
  170.7730  144.1460  145.5420 C   0  0  0  0  0  0  0  0  0  0  0  0
  1 10  1  0  0  0  0
  2  1  2  0  0  0  0
  2  3  1  0  0  0  0
  3  7  2  0  0  0  0
  4  3  1  0  0  0  0
  5  4  2  0  0  0  0
  6  9  2  0  0  0  0
  6  5  1  0  0  0  0
  7  8  1  0  0  0  0
  9  2  1  0  0  0  0
 10  8  2  0  0  0  0
 11 14  1  0  0  0  0
 11  1  1  0  0  0  0
 12 19  1  0  0  0  0
 13 12  1  0  0  0  0
 14 13  2  0  0  0  0
 15 16  2  0  0  0  0
 15 14  1  0  0  0  0
 16 17  1  0  0  0  0
 17 12  2  0  0  0  0
 19 18  3  0  0  0  0
 20  6  1  0  0  0  0
 21 22  1  0  0  0  0
 21 20  1  0  0  0  0
 23 22  1  0  0  0  0
 23 24  1  0  0  0  0
 25  5  1  0  0  0  0
 25 26  1  0  0  0  0
 27 28  1  0  0  0  0
 27 26  1  0  0  0  0
 29 28  1  0  0  0  0
M  END
>  <REMARK>
 VINA RESULT:      -7.7      0.000      0.000
  Name = 
                            x       y       z     vdW  Elec       q    Type
                         _______ _______ _______ _____ _____    ______ ____

>  <Score> 
-7.7

>  <TORSDO>
F 11

$$$$
=
 OpenBabel12272317403D

 60 75  0  0  1  0  0  0  0  0999 V2000
  164.5020  118.2600  183.6370 C   0  0  0  0  0  0  0  0  0  0  0  0
  164.4900  117.4320  183.5970 C   0  0  0  0  0  0  0  0  0  0  0  0
  163.2320  117.4420  183.0620 C   0  0  0  0  0  0  0  0  0  0  0  0
  163.1860  118.2910  183.0780 N   0  0  0  0  0  0  0  0  0  0  0  0
  162.5320  118.7210  182.8190 C   0  0  0  0  0  0  0  0  0  0  0  0
  162.5470  119.5450  182.8600 C   0  0  0  0  0  0  0  0  0  0  0  0
  163.2080  119.9360  183.1580 C   0  0  1  0  0  0  0  0  0  0  0  0
  163.8550  119.5060  183.4150 C   0  0  0  0  0  0  0  0  0  0  0  0
  164.5240  119.9050  183.7160 C   0  0  1  0  0  0  0  0  0  0  0  0
  165.1750  119.4750  183.9750 C   0  0  1  0  0  0  0  0  0  0  0  0
  165.1820  120.2950  184.0130 O   0  0  0  0  0  0  0  0  0  0  0  0
  163.8510  118.6850  183.3780 C   0  0  0  0  0  0  0  0  0  0  0  0
  165.1710  118.6540  183.9380 C   0  0  1  0  0  0  0  0  0  0  0  0
  165.8240  118.2250  184.1980 N   0  0  0  0  0  0  0  0  0  0  0  0
  166.4860  118.6160  184.4960 C   0  0  0  0  0  0  0  0  0  0  0  0
  167.1400  118.1780  184.7560 O   0  0  0  0  0  0  0  0  0  0  0  0
  165.8090  117.4010  184.1570 C   0  0  0  0  0  0  0  0  0  0  0  0
  166.4670  117.0080  184.4200 C   0  0  0  0  0  0  0  0  0  0  0  0
  166.4780  116.1800  184.3900 C   0  0  0  0  0  0  0  0  0  0  0  0
  165.8320  115.7690  184.0980 C   0  0  0  0  0  0  0  0  0  0  0  0
  165.1670  116.1730  183.8320 C   0  0  0  0  0  0  0  0  0  0  0  0
  165.1480  117.0060  183.8590 C   0  0  0  0  0  0  0  0  0  0  0  0
  165.8680  113.7020  184.0260 C   0  0  0  0  0  0  0  0  0  0  0  0
  166.1240  113.7520  183.2370 C   0  0  0  0  0  0  0  0  0  0  0  0
  166.2020  114.5320  182.9850 C   0  0  0  0  0  0  0  0  0  0  0  0
  166.4420  114.8060  182.2400 C   0  0  2  0  0  0  0  0  0  0  0  0
  166.6600  114.3780  181.5760 C   0  0  1  0  0  0  0  0  0  0  0  0
  166.9830  114.4140  180.5840 O   0  0  0  0  0  0  0  0  0  0  0  0
  166.6950  113.5600  181.4840 C   0  0  1  0  0  0  0  0  0  0  0  0
  166.5190  112.9700  182.0380 N   0  0  0  0  0  0  0  0  0  0  0  0
  166.2660  113.0530  182.8140 C   0  0  0  0  0  0  0  0  0  0  0  0
  166.1550  112.3160  183.1710 C   0  0  0  0  0  0  0  0  0  0  0  0
  165.9010  112.2730  183.9540 C   0  0  0  0  0  0  0  0  0  0  0  0
  165.5370  111.4890  185.0870 C   0  0  0  0  0  0  0  0  0  0  0  0
  165.3940  112.1790  185.5160 C   0  0  0  0  0  0  0  0  0  0  0  0
  165.1390  112.1430  186.2980 C   0  0  0  0  0  0  0  0  0  0  0  0
  165.0280  111.4050  186.6550 C   0  0  0  0  0  0  0  0  0  0  0  0
  165.1720  110.7150  186.2260 C   0  0  0  0  0  0  0  0  0  0  0  0
  165.5040  112.9210  185.1610 N   0  0  0  0  0  0  0  0  0  0  0  0
  165.4250  110.7550  185.4460 C   0  0  0  0  0  0  0  0  0  0  0  0
  166.4710  113.9330  182.1660 C   0  0  1  0  0  0  0  0  0  0  0  0
  165.7570  112.9630  184.3830 C   0  0  0  0  0  0  0  0  0  0  0  0
  165.5390  114.2300  185.0280 C   0  0  1  0  0  0  0  0  0  0  0  0
  166.0930  114.3790  185.6120 O   0  0  0  0  0  0  0  0  0  0  0  0
  164.7550  114.4470  185.1380 O   0  0  0  0  0  0  0  0  0  0  0  0
  164.4750  114.6000  185.8930 C   0  0  0  0  0  0  0  0  0  0  0  0
  166.7090  115.1820  181.4120 C   0  0  1  0  0  0  0  0  0  0  0  0
  166.9250  115.6310  180.7550 C   0  0  0  0  0  0  0  0  0  0  0  0
  166.1970  120.0680  184.4350 C   0  0  0  0  0  0  0  0  0  0  0  0
  166.8140  120.2230  184.0290 O   0  0  0  0  0  0  0  0  0  0  0  0
  166.1980  120.3070  185.2340 O   0  0  0  0  0  0  0  0  0  0  0  0
  166.8400  120.6340  185.5070 C   0  0  0  0  0  0  0  0  0  0  0  0
  163.8670  120.3260  183.4540 C   0  0  1  0  0  0  0  0  0  0  0  0
  163.1700  120.7310  183.6380 C   0  0  0  0  0  0  0  0  0  0  0  0
  167.1510  115.7340  184.6580 O   0  0  0  0  0  0  0  0  0  0  0  0
  167.9160  116.1930  185.0310 C   0  0  0  0  0  0  0  0  0  0  0  0
  164.5310  120.7240  183.7540 O   0  0  0  0  0  0  0  0  0  0  0  0
  164.7700  121.0870  183.2360 C   0  0  0  0  0  0  0  0  0  0  0  0
  164.7740  121.7610  183.2660 C   0  0  0  0  0  0  0  0  0  0  0  0
  165.0040  120.7690  182.6880 O   0  0  0  0  0  0  0  0  0  0  0  0
  2  1  2  0  0  0  0
  2 22  1  0  0  0  0
  3  4  1  0  0  0  0
  3  2  1  0  0  0  0
  4 12  1  0  0  0  0
  5  6  2  0  0  0  0
  5  4  1  0  0  0  0
  7  6  1  6  0  0  0
  7  8  1  0  0  0  0
  7 53  1  0  0  0  0
  7 54  1  0  0  0  0
  9 57  1  1  0  0  0
  9 10  1  0  0  0  0
  9 11  1  0  0  0  0
 10 11  1  0  0  0  0
 10 49  1  6  0  0  0
 12  8  2  0  0  0  0
 12  1  1  0  0  0  0
 13  1  1  1  0  0  0
 13 10  1  0  0  0  0
 13 14  1  0  0  0  0
 14 15  1  0  0  0  0
 15 16  1  0  0  0  0
 17 14  1  0  0  0  0
 17 18  2  0  0  0  0
 18 16  1  0  0  0  0
 19 18  1  0  0  0  0
 19 55  1  0  0  0  0
 20 19  2  0  0  0  0
 21 22  2  0  0  0  0
 21 20  1  0  0  0  0
 22 17  1  0  0  0  0
 23 42  1  0  0  0  0
 23 43  1  0  0  0  0
 24 23  2  0  0  0  0
 25 24  1  0  0  0  0
 26 25  1  6  0  0  0
 27 47  1  6  0  0  0
 27 41  1  0  0  0  0
 27 26  1  0  0  0  0
 29 27  1  0  0  0  0
 29 30  1  1  0  0  0
 29 41  1  0  0  0  0
 30 31  1  0  0  0  0
 31 32  2  0  0  0  0
 31 24  1  0  0  0  0
 32 33  1  0  0  0  0
 33 42  2  0  0  0  0
 34 40  2  0  0  0  0
 34 35  1  0  0  0  0
 35 36  2  0  0  0  0
 36 37  1  0  0  0  0
 38 37  2  0  0  0  0
 39 35  1  0  0  0  0
 40 38  1  0  0  0  0
 41 30  1  6  0  0  0
 41 26  1  0  0  0  0
 42 39  1  0  0  0  0
 43 45  1  1  0  0  0
 43 39  1  0  0  0  0
 43 44  1  0  0  0  0
 45 46  1  0  0  0  0
 47 28  1  6  0  0  0
 47 26  1  0  0  0  0
 48 47  1  0  0  0  0
 49 51  1  0  0  0  0
 50 49  2  0  0  0  0
 51 52  1  0  0  0  0
 53  8  1  1  0  0  0
 53 54  1  0  0  0  0
 53  9  1  0  0  0  0
 55 56  1  0  0  0  0
 58 59  1  0  0  0  0
 58 57  1  0  0  0  0
 60 58  2  0  0  0  0
M  END
>  <REMARK>
 VINA RESULT:     -11.8      0.000      0.000
  Name = 
                            x       y       z     vdW  Elec       q    Type
                         _______ _______ _______ _____ _____    ______ ____

>  <Score> 
-11.8

>  <TORSDO>
F 10

$$$$
=
 OpenBabel12272317403D

 59 67  0  0  1  0  0  0  0  0999 V2000
  205.1450  113.4940  144.5620 C   0  0  2  0  0  0  0  0  0  0  0  0
  204.2350  113.7850  143.2780 C   0  0  2  0  0  0  0  0  0  0  0  0
  205.3940  114.0970  142.3040 N   0  0  1  0  0  0  0  0  0  0  0  0
  205.1560  115.3710  141.7870 C   0  0  0  0  0  0  0  0  0  0  0  0
  204.9910  116.1350  143.1100 C   0  0  0  0  0  0  0  0  0  0  0  0
  206.6500  113.7050  142.6820 C   0  0  0  0  0  0  0  0  0  0  0  0
  207.0700  114.4980  143.9030 C   0  0  0  0  0  0  0  0  0  0  0  0
  203.8420  115.3100  143.5930 C   0  0  2  0  0  0  0  0  0  0  0  0
  203.7530  115.4430  145.1820 C   0  0  2  0  0  0  0  0  0  0  0  0
  203.0270  114.0780  145.6080 C   0  0  2  0  0  0  0  0  0  0  0  0
  202.8240  114.5050  146.9380 O   0  0  0  0  0  0  0  0  0  0  0  0
  202.4270  116.2640  145.2470 N   0  0  0  0  0  0  0  0  0  0  0  0
  201.9670  116.8420  146.4770 C   0  0  0  0  0  0  0  0  0  0  0  0
  201.8620  116.3050  143.9910 C   0  0  0  0  0  0  0  0  0  0  0  0
  200.6350  116.8190  143.6480 C   0  0  0  0  0  0  0  0  0  0  0  0
  200.1420  116.8310  142.3630 C   0  0  0  0  0  0  0  0  0  0  0  0
  200.9370  116.2960  141.3920 C   0  0  0  0  0  0  0  0  0  0  0  0
  202.1660  115.7820  141.7480 C   0  0  0  0  0  0  0  0  0  0  0  0
  202.6600  115.7690  143.0320 C   0  0  0  0  0  0  0  0  0  0  0  0
  204.1800  112.9540  145.7240 C   0  0  2  0  0  0  0  0  0  0  0  0
  206.1680  114.3020  144.8650 C   0  0  0  0  0  0  0  0  0  0  0  0
  200.4600  116.3100  139.9640 C   0  0  2  0  0  0  0  0  0  0  0  0
  199.2420  115.5490  139.7240 C   0  0  0  0  0  0  0  0  0  0  0  0
  198.5120  115.4330  138.5900 C   0  0  0  0  0  0  0  0  0  0  0  0
  197.4230  114.6260  138.8650 C   0  0  0  0  0  0  0  0  0  0  0  0
  197.5100  114.2620  140.1760 C   0  0  0  0  0  0  0  0  0  0  0  0
  196.5880  113.4480  140.8180 C   0  0  0  0  0  0  0  0  0  0  0  0
  195.5250  112.9760  140.1060 C   0  0  0  0  0  0  0  0  0  0  0  0
  195.4170  113.3300  138.7810 C   0  0  0  0  0  0  0  0  0  0  0  0
  196.3500  114.1500  138.1490 C   0  0  0  0  0  0  0  0  0  0  0  0
  198.8470  116.0890  137.2530 C   0  0  0  0  0  0  0  0  0  0  0  0
  199.3420  115.0460  136.2720 C   0  0  0  0  0  0  0  0  0  0  0  0
  200.7290  115.3580  135.8420 N   0  0  2  0  0  0  0  0  0  0  0  0
  201.4320  114.1690  135.5060 C   0  0  0  0  0  0  0  0  0  0  0  0
  202.4990  113.7100  136.4010 C   0  0  2  0  0  0  0  0  0  0  0  0
  202.3760  113.9450  137.8510 C   0  0  0  0  0  0  0  0  0  0  0  0
  201.0260  114.8350  138.1120 C   0  0  2  0  0  0  0  0  0  0  0  0
  203.7770  114.1840  136.0040 O   0  0  0  0  0  0  0  0  0  0  0  0
  201.4660  115.9200  136.9570 C   0  0  0  0  0  0  0  0  0  0  0  0
  198.5980  114.8230  140.6630 N   0  0  0  0  0  0  0  0  0  0  0  0
  201.6460  115.7320  139.2690 C   0  0  0  0  0  0  0  0  0  0  0  0
  202.6130  112.1800  136.2300 C   0  0  0  0  0  0  0  0  0  0  0  0
  201.5500  111.9180  135.1450 C   0  0  0  0  0  0  0  0  0  0  0  0
  200.1850  117.7320  139.7200 C   0  0  0  0  0  0  0  0  0  0  0  0
  201.1690  118.4790  139.6310 O   0  0  0  0  0  0  0  0  0  0  0  0
  198.9670  118.3500  139.5770 O   0  0  0  0  0  0  0  0  0  0  0  0
  198.9020  119.7610  139.5280 C   0  0  0  0  0  0  0  0  0  0  0  0
  204.8300  111.2310  144.3650 C   0  0  0  0  0  0  0  0  0  0  0  0
  205.6870  112.0920  144.1320 C   0  0  0  0  0  0  0  0  0  0  0  0
  201.8560  113.6300  145.0930 C   0  0  0  0  0  0  0  0  0  0  0  0
  200.8860  113.6420  145.9160 O   0  0  0  0  0  0  0  0  0  0  0  0
  201.3390  113.1390  143.9130 O   0  0  0  0  0  0  0  0  0  0  0  0
  200.0180  113.0680  143.4900 C   0  0  0  0  0  0  0  0  0  0  0  0
  198.8620  117.3800  142.0980 O   0  0  0  0  0  0  0  0  0  0  0  0
  197.9270  117.4640  143.1610 C   0  0  0  0  0  0  0  0  0  0  0  0
  204.9680  113.5420  146.8620 O   0  0  0  0  0  0  0  0  0  0  0  0
  205.7600  112.7730  147.6410 C   0  0  0  0  0  0  0  0  0  0  0  0
  206.8720  113.1890  148.0410 O   0  0  0  0  0  0  0  0  0  0  0  0
  205.3440  111.3970  148.0570 C   0  0  0  0  0  0  0  0  0  0  0  0
  1 49  1  6  0  0  0
  1 21  1  0  0  0  0
  1 20  1  0  0  0  0
  2  3  1  6  0  0  0
  2  8  1  0  0  0  0
  2  1  1  0  0  0  0
  3  4  1  1  0  0  0
  3  6  1  0  0  0  0
  4  5  1  0  0  0  0
  5  8  1  0  0  0  0
  6  7  1  0  0  0  0
  7 21  1  0  0  0  0
  8 19  1  6  0  0  0
  8  9  1  0  0  0  0
  9 12  1  6  0  0  0
  9 10  1  0  0  0  0
 10 50  1  6  0  0  0
 10 20  1  0  0  0  0
 10 11  1  0  0  0  0
 12 13  1  0  0  0  0
 14 12  1  0  0  0  0
 15 14  1  0  0  0  0
 16 15  2  0  0  0  0
 17 18  2  0  0  0  0
 17 16  1  0  0  0  0
 18 19  1  0  0  0  0
 19 14  2  0  0  0  0
 20 56  1  1  0  0  0
 22 44  1  6  0  0  0
 22 17  1  0  0  0  0
 23 22  1  0  0  0  0
 23 40  1  0  0  0  0
 24 25  1  0  0  0  0
 24 23  2  0  0  0  0
 25 26  2  0  0  0  0
 26 40  1  0  0  0  0
 26 27  1  0  0  0  0
 28 27  2  0  0  0  0
 29 28  1  0  0  0  0
 30 29  2  0  0  0  0
 30 25  1  0  0  0  0
 31 24  1  0  0  0  0
 32 31  1  0  0  0  0
 33 34  1  1  0  0  0
 33 32  1  0  0  0  0
 33 39  1  0  0  0  0
 34 35  1  0  0  0  0
 35 38  1  6  0  0  0
 35 36  1  0  0  0  0
 36 37  1  0  0  0  0
 37 39  1  6  0  0  0
 37 41  1  0  0  0  0
 41 22  1  0  0  0  0
 42 35  1  0  0  0  0
 43 42  1  0  0  0  0
 45 44  2  0  0  0  0
 46 44  1  0  0  0  0
 47 46  1  0  0  0  0
 49 48  1  0  0  0  0
 50 51  2  0  0  0  0
 52 50  1  0  0  0  0
 53 52  1  0  0  0  0
 54 16  1  0  0  0  0
 54 55  1  0  0  0  0
 56 57  1  0  0  0  0
 57 58  2  0  0  0  0
 57 59  1  0  0  0  0
M  END
>  <REMARK>
 VINA RESULT:      -8.6      0.000      0.000
  Name = 
                            x       y       z     vdW  Elec       q    Type
                         _______ _______ _______ _____ _____    ______ ____

>  <Score> 
-8.6

>  <TORSDO>
F 10

$$$$
=
 OpenBabel12272317403D

 62 70  0  0  1  0  0  0  0  0999 V2000
  186.9740   88.7230  153.9880 C   0  0  1  0  0  0  0  0  0  0  0  0
  186.6150   90.0100  154.8690 C   0  0  0  0  0  0  0  0  0  0  0  0
  187.6610   90.5030  154.6790 O   0  0  0  0  0  0  0  0  0  0  0  0
  185.7320   90.7110  155.6550 C   0  0  2  0  0  0  0  0  0  0  0  0
  184.3580   90.1790  156.0800 C   0  0  2  0  0  0  0  0  0  0  0  0
  183.7000   91.5080  156.6590 C   0  0  1  0  0  0  0  0  0  0  0  0
  184.0850   91.3210  158.1850 C   0  0  2  0  0  0  0  0  0  0  0  0
  185.6990   91.7040  157.9340 C   0  0  2  0  0  0  0  0  0  0  0  0
  183.7660   92.7640  158.3800 O   0  0  0  0  0  0  0  0  0  0  0  0
  184.3520   92.7150  157.0900 C   0  0  1  0  0  0  0  0  0  0  0  0
  184.1570   89.1560  157.2130 C   0  0  2  0  0  0  0  0  0  0  0  0
  184.8410   87.7630  156.8970 C   0  0  2  0  0  0  0  0  0  0  0  0
  184.7570   87.5900  155.4050 C   0  0  0  0  0  0  0  0  0  0  0  0
  184.5790   86.0640  155.0260 C   0  0  0  0  0  0  0  0  0  0  0  0
  183.6540   88.2210  154.6830 C   0  0  0  0  0  0  0  0  0  0  0  0
  183.9730   86.7200  157.1910 O   0  0  0  0  0  0  0  0  0  0  0  0
  186.0970   87.4330  157.5590 C   0  0  0  0  0  0  0  0  0  0  0  0
  186.3400   86.1290  156.5430 C   0  0  1  0  0  0  0  0  0  0  0  0
  187.0820   87.1000  155.4600 C   0  0  0  0  0  0  0  0  0  0  0  0
  188.4640   87.1420  155.2100 C   0  0  0  0  0  0  0  0  0  0  0  0
  185.9680   92.0810  155.3300 C   0  0  0  0  0  0  0  0  0  0  0  0
  186.2410   90.3980  157.1800 C   0  0  2  0  0  0  0  0  0  0  0  0
  187.6330   90.9570  157.0660 O   0  0  0  0  0  0  0  0  0  0  0  0
  186.0930   87.7960  154.9700 C   0  0  0  0  0  0  0  0  0  0  0  0
  185.8570   88.9030  152.9580 O   0  0  0  0  0  0  0  0  0  0  0  0
  187.2200   88.0570  151.0420 C   0  0  0  0  0  0  0  0  0  0  0  0
  186.0360   88.0270  151.9000 C   0  0  0  0  0  0  0  0  0  0  0  0
  185.1990   87.1410  151.5940 O   0  0  0  0  0  0  0  0  0  0  0  0
  182.5910   91.8840  156.1320 O   0  0  0  0  0  0  0  0  0  0  0  0
  182.0200   91.9150  154.9350 C   0  0  0  0  0  0  0  0  0  0  0  0
  182.1800   92.8820  154.1640 O   0  0  0  0  0  0  0  0  0  0  0  0
  181.1330   90.8600  154.3290 C   0  0  0  0  0  0  0  0  0  0  0  0
  182.8100   88.8580  157.2210 O   0  0  0  0  0  0  0  0  0  0  0  0
  181.6190   88.5950  157.2250 C   0  0  0  0  0  0  0  0  0  0  0  0
  181.1950   89.4620  158.0310 O   0  0  0  0  0  0  0  0  0  0  0  0
  180.5490   87.7600  156.7260 C   0  0  0  0  0  0  0  0  0  0  0  0
  180.7960   86.8530  155.6670 C   0  0  0  0  0  0  0  0  0  0  0  0
  179.8080   86.0440  155.1750 C   0  0  0  0  0  0  0  0  0  0  0  0
  178.5310   86.0670  155.6770 C   0  0  0  0  0  0  0  0  0  0  0  0
  178.2410   86.9500  156.7250 C   0  0  0  0  0  0  0  0  0  0  0  0
  179.2790   87.7350  157.1730 C   0  0  0  0  0  0  0  0  0  0  0  0
  187.6080   85.5640  157.1530 O   0  0  0  0  0  0  0  0  0  0  0  0
  187.4310   84.2870  157.4290 C   0  0  0  0  0  0  0  0  0  0  0  0
  186.3470   83.8480  157.8660 O   0  0  0  0  0  0  0  0  0  0  0  0
  188.5540   83.1410  157.2470 C   0  0  2  0  0  0  0  0  0  0  0  0
  187.8200   82.0520  157.9580 O   0  0  0  0  0  0  0  0  0  0  0  0
  189.3780   83.6830  158.6540 C   0  0  2  0  0  0  0  0  0  0  0  0
  190.3780   84.6740  157.9910 C   0  0  0  0  0  0  0  0  0  0  0  0
  190.7850   85.6620  158.8450 C   0  0  0  0  0  0  0  0  0  0  0  0
  191.6700   86.6440  158.4540 C   0  0  0  0  0  0  0  0  0  0  0  0
  192.1310   86.5920  157.1650 C   0  0  0  0  0  0  0  0  0  0  0  0
  191.7340   85.6120  156.3020 C   0  0  0  0  0  0  0  0  0  0  0  0
  190.8410   84.6570  156.7620 C   0  0  0  0  0  0  0  0  0  0  0  0
  190.2470   82.4170  158.7350 N   0  0  0  0  0  0  0  0  0  0  0  0
  190.8470   81.9590  159.8450 C   0  0  0  0  0  0  0  0  0  0  0  0
  190.7200   82.5750  160.9250 O   0  0  0  0  0  0  0  0  0  0  0  0
  191.6490   80.7450  159.8050 C   0  0  0  0  0  0  0  0  0  0  0  0
  191.9980   80.1470  158.6120 C   0  0  0  0  0  0  0  0  0  0  0  0
  192.7550   79.0040  158.6470 C   0  0  0  0  0  0  0  0  0  0  0  0
  193.1830   78.4250  159.8270 C   0  0  0  0  0  0  0  0  0  0  0  0
  192.8250   79.0370  161.0140 C   0  0  0  0  0  0  0  0  0  0  0  0
  192.0690   80.1790  160.9720 C   0  0  0  0  0  0  0  0  0  0  0  0
  1 25  1  6  0  0  0
  1  2  1  0  0  0  0
  1 24  1  0  0  0  0
  2  4  1  0  0  0  0
  3  2  2  0  0  0  0
  4 21  1  6  0  0  0
  4 22  1  0  0  0  0
  5  4  1  1  0  0  0
  5  6  1  0  0  0  0
  5 11  1  0  0  0  0
  6 29  1  6  0  0  0
  6 10  1  0  0  0  0
  6  7  1  0  0  0  0
  7  9  1  1  0  0  0
  8 10  1  6  0  0  0
  8  7  1  0  0  0  0
 10  7  1  0  0  0  0
 10  9  1  1  0  0  0
 11 33  1  6  0  0  0
 12 16  1  1  0  0  0
 12 11  1  0  0  0  0
 12 17  1  0  0  0  0
 13 12  1  0  0  0  0
 14 13  1  0  0  0  0
 15 13  1  0  0  0  0
 18 42  1  1  0  0  0
 18 17  1  0  0  0  0
 19 18  1  0  0  0  0
 20 19  1  0  0  0  0
 22 23  1  6  0  0  0
 22  8  1  0  0  0  0
 24 13  1  0  0  0  0
 24 19  2  0  0  0  0
 26 27  1  0  0  0  0
 27 25  1  0  0  0  0
 28 27  2  0  0  0  0
 30 29  1  0  0  0  0
 31 30  2  0  0  0  0
 32 30  1  0  0  0  0
 33 34  1  0  0  0  0
 34 35  2  0  0  0  0
 36 41  2  0  0  0  0
 36 34  1  0  0  0  0
 37 36  1  0  0  0  0
 38 37  2  0  0  0  0
 38 39  1  0  0  0  0
 39 40  2  0  0  0  0
 40 41  1  0  0  0  0
 42 43  1  0  0  0  0
 43 44  2  0  0  0  0
 45 43  1  1  0  0  0
 45 46  1  0  0  0  0
 45 47  1  0  0  0  0
 47 48  1  6  0  0  0
 47 54  1  0  0  0  0
 48 49  2  0  0  0  0
 50 49  1  0  0  0  0
 51 50  2  0  0  0  0
 52 53  2  0  0  0  0
 52 51  1  0  0  0  0
 53 48  1  0  0  0  0
 54 55  1  0  0  0  0
 55 56  2  0  0  0  0
 57 55  1  0  0  0  0
 57 62  2  0  0  0  0
 58 59  2  0  0  0  0
 58 57  1  0  0  0  0
 59 60  1  0  0  0  0
 60 61  2  0  0  0  0
 62 61  1  0  0  0  0
M  END
>  <REMARK>
 VINA RESULT:      -9.3      0.000      0.000
  Name = 
                            x       y       z     vdW  Elec       q    Type
                         _______ _______ _______ _____ _____    ______ ____

>  <Score> 
-9.3

>  <TORSDO>
F 14

$$$$
ZINC000193546412
 OpenBabel12272317403D

 23 25  0  0  0  0  0  0  0  0999 V2000
  156.2570  188.8760  160.6050 C   0  0  0  0  0  0  0  0  0  0  0  0
  156.7420  187.5980  160.4940 N   0  0  0  0  0  0  0  0  0  0  0  0
  157.5600  187.5590  159.5010 C   0  0  0  0  0  0  0  0  0  0  0  0
  157.7590  189.0550  158.6900 S   0  0  0  0  0  0  0  0  0  0  0  0
  156.6950  189.7500  159.7340 N   0  0  0  0  0  0  0  0  0  0  0  0
  153.4450  189.9520  163.6440 C   0  0  0  0  0  0  0  0  0  0  0  0
  154.8100  189.9650  163.9290 C   0  0  0  0  0  0  0  0  0  0  0  0
  155.7200  189.6160  162.9370 C   0  0  0  0  0  0  0  0  0  0  0  0
  155.2910  189.2460  161.6480 C   0  0  0  0  0  0  0  0  0  0  0  0
  153.9060  189.2430  161.3930 C   0  0  0  0  0  0  0  0  0  0  0  0
  152.9920  189.5910  162.3810 C   0  0  0  0  0  0  0  0  0  0  0  0
  152.5960  191.3980  165.5040 C   0  0  0  0  0  0  0  0  0  0  0  0
  152.4960  190.2870  164.5820 O   0  0  0  0  0  0  0  0  0  0  0  0
  158.1810  186.3480  159.1930 N   0  0  0  0  0  0  0  0  0  0  0  0
  157.8530  185.9100  158.3270 H   0  0  0  0  0  0  0  0  0  0  0  0
  159.1580  185.6850  159.8880 C   0  0  0  0  0  0  0  0  0  0  0  0
  159.5570  186.1830  160.9290 O   0  0  0  0  0  0  0  0  0  0  0  0
  159.6770  184.4240  159.3790 C   0  0  0  0  0  0  0  0  0  0  0  0
  160.6510  184.1810  158.4470 C   0  0  0  0  0  0  0  0  0  0  0  0
  161.7610  185.3040  157.4110 Br  0  0  0  0  0  0  0  0  0  0  0  0
  160.8050  182.8510  158.2840 O   0  0  0  0  0  0  0  0  0  0  0  0
  159.9310  182.2280  159.1110 C   0  0  0  0  0  0  0  0  0  0  0  0
  159.2280  183.1550  159.7950 C   0  0  0  0  0  0  0  0  0  0  0  0
  1  9  1  0  0  0  0
  2  1  1  0  0  0  0
  3  2  2  0  0  0  0
  4  3  1  0  0  0  0
  4  5  1  0  0  0  0
  5  1  2  0  0  0  0
  6  7  1  0  0  0  0
  6 13  1  0  0  0  0
  8  7  2  0  0  0  0
  9  8  1  0  0  0  0
 10  9  2  0  0  0  0
 10 11  1  0  0  0  0
 11  6  2  0  0  0  0
 13 12  1  0  0  0  0
 14  3  1  0  0  0  0
 14 16  1  0  0  0  0
 15 14  1  0  0  0  0
 16 17  2  0  0  0  0
 18 23  1  0  0  0  0
 18 16  1  0  0  0  0
 19 18  2  0  0  0  0
 20 19  1  0  0  0  0
 21 19  1  0  0  0  0
 21 22  1  0  0  0  0
 22 23  2  0  0  0  0
M  END
>  <REMARK>
 VINA RESULT:      -6.6      0.000      0.000
  Name = ZINC000193546412
                            x       y       z     vdW  Elec       q    Type
                         _______ _______ _______ _____ _____    ______ ____

>  <Score> 
-6.6

>  <TORSDO>
F 4

$$$$
ZINC000006087320
 OpenBabel12272317403D

 26 28  0  0  0  0  0  0  0  0999 V2000
  164.4530  162.8140  155.8500 C   0  0  0  0  0  0  0  0  0  0  0  0
  163.7940  161.9860  156.8890 N   0  0  0  0  0  0  0  0  0  0  0  0
  164.4770  160.9510  157.5030 C   0  0  0  0  0  0  0  0  0  0  0  0
  165.6380  160.7430  157.1410 O   0  0  0  0  0  0  0  0  0  0  0  0
  163.7820  160.1770  158.5100 C   0  0  0  0  0  0  0  0  0  0  0  0
  164.4080  159.1290  159.2010 C   0  0  0  0  0  0  0  0  0  0  0  0
  163.7020  158.4090  160.1580 C   0  0  0  0  0  0  0  0  0  0  0  0
  164.4760  157.1160  161.0080 Cl  0  0  0  0  0  0  0  0  0  0  0  0
  162.3680  158.7200  160.4350 C   0  0  0  0  0  0  0  0  0  0  0  0
  161.7440  159.7570  159.7520 C   0  0  0  0  0  0  0  0  0  0  0  0
  160.0860  160.1160  160.1230 Cl  0  0  0  0  0  0  0  0  0  0  0  0
  162.4460  160.4990  158.7760 C   0  0  0  0  0  0  0  0  0  0  0  0
  161.8320  161.5490  158.0660 N   0  0  0  0  0  0  0  0  0  0  0  0
  162.4640  162.2290  157.1870 C   0  0  0  0  0  0  0  0  0  0  0  0
  163.0720  163.8350  154.0830 N   0  0  0  0  0  0  0  0  0  0  0  0
  163.2750  164.6840  154.6400 H   0  0  0  0  0  0  0  0  0  0  0  0
  163.6390  162.6840  154.5730 C   0  0  0  0  0  0  0  0  0  0  0  0
  163.5170  161.6170  154.0100 O   0  0  0  0  0  0  0  0  0  0  0  0
  160.8490  164.1650  153.1830 C   0  0  0  0  0  0  0  0  0  0  0  0
  162.2310  164.0270  152.9560 C   0  0  0  0  0  0  0  0  0  0  0  0
  162.7510  164.1050  151.6600 C   0  0  0  0  0  0  0  0  0  0  0  0
  161.8930  164.2940  150.5830 C   0  0  0  0  0  0  0  0  0  0  0  0
  160.5230  164.4140  150.7950 C   0  0  0  0  0  0  0  0  0  0  0  0
  160.0080  164.3510  152.0870 C   0  0  0  0  0  0  0  0  0  0  0  0
  158.7100  164.0340  154.3770 C   0  0  0  0  0  0  0  0  0  0  0  0
  160.2310  164.1070  154.5750 C   0  0  0  0  0  0  0  0  0  0  0  0
  1  2  1  0  0  0  0
  2 14  1  0  0  0  0
  2  3  1  0  0  0  0
  3  5  1  0  0  0  0
  4  3  2  0  0  0  0
  5 12  2  0  0  0  0
  5  6  1  0  0  0  0
  6  7  2  0  0  0  0
  7  9  1  0  0  0  0
  7  8  1  0  0  0  0
 10 11  1  0  0  0  0
 10  9  2  0  0  0  0
 12 10  1  0  0  0  0
 13 12  1  0  0  0  0
 14 13  2  0  0  0  0
 15 17  1  0  0  0  0
 15 16  1  0  0  0  0
 17  1  1  0  0  0  0
 18 17  2  0  0  0  0
 19 26  1  0  0  0  0
 20 19  1  0  0  0  0
 20 15  1  0  0  0  0
 21 20  2  0  0  0  0
 22 23  2  0  0  0  0
 22 21  1  0  0  0  0
 23 24  1  0  0  0  0
 24 19  2  0  0  0  0
 25 26  1  0  0  0  0
M  END
>  <REMARK>
 VINA RESULT:      -8.0      0.000      0.000
  Name = ZINC000006087320
                            x       y       z     vdW  Elec       q    Type
                         _______ _______ _______ _____ _____    ______ ____

>  <Score> 
-8.0

>  <TORSDO>
F 4

$$$$
ZINC000049410085
 OpenBabel12272317403D

 29 32  0  0  0  0  0  0  0  0999 V2000
  170.6870  147.1430  145.1120 C   0  0  0  0  0  0  0  0  0  0  0  0
  170.5880  148.3300  145.8320 N   0  0  0  0  0  0  0  0  0  0  0  0
  169.6640  148.4730  146.9680 C   0  0  0  0  0  0  0  0  0  0  0  0
  168.4040  149.1250  146.3740 C   0  0  0  0  0  0  0  0  0  0  0  0
  168.7880  150.4650  145.7180 C   0  0  0  0  0  0  0  0  0  0  0  0
  167.6220  151.0030  145.0780 N   0  0  0  0  0  0  0  0  0  0  0  0
  167.3030  150.5630  144.2110 H   0  0  0  0  0  0  0  0  0  0  0  0
  166.6930  151.7250  145.7450 C   0  0  0  0  0  0  0  0  0  0  0  0
  165.6120  151.8290  145.1810 O   0  0  0  0  0  0  0  0  0  0  0  0
  167.0260  152.2880  147.0360 C   0  0  0  0  0  0  0  0  0  0  0  0
  166.1100  152.9930  147.8310 C   0  0  0  0  0  0  0  0  0  0  0  0
  166.4960  153.5100  149.0610 C   0  0  0  0  0  0  0  0  0  0  0  0
  167.8110  153.3300  149.5120 C   0  0  0  0  0  0  0  0  0  0  0  0
  168.2860  153.9790  151.0490 Cl  0  0  0  0  0  0  0  0  0  0  0  0
  168.7370  152.6360  148.7370 C   0  0  0  0  0  0  0  0  0  0  0  0
  168.3370  152.1150  147.5090 C   0  0  0  0  0  0  0  0  0  0  0  0
  169.2500  151.4150  146.7210 N   0  0  0  0  0  0  0  0  0  0  0  0
  170.1210  151.1330  147.1850 H   0  0  0  0  0  0  0  0  0  0  0  0
  169.8650  150.2820  144.6400 C   0  0  0  0  0  0  0  0  0  0  0  0
  171.0920  149.5940  145.2620 C   0  0  0  0  0  0  0  0  0  0  0  0
  171.0460  147.2190  143.9410 O   0  0  0  0  0  0  0  0  0  0  0  0
  172.0980  143.0390  147.6020 C   0  0  0  0  0  0  0  0  0  0  0  0
  171.0230  143.8620  146.9260 C   0  0  0  0  0  0  0  0  0  0  0  0
  171.3330  145.0930  146.3550 C   0  0  0  0  0  0  0  0  0  0  0  0
  170.3430  145.8620  145.7330 C   0  0  0  0  0  0  0  0  0  0  0  0
  169.0240  145.3880  145.7200 C   0  0  0  0  0  0  0  0  0  0  0  0
  168.7050  144.1590  146.2890 C   0  0  0  0  0  0  0  0  0  0  0  0
  167.2780  143.6540  146.2770 C   0  0  0  0  0  0  0  0  0  0  0  0
  169.7080  143.4020  146.8920 C   0  0  0  0  0  0  0  0  0  0  0  0
  1 25  1  0  0  0  0
  1  2  1  0  0  0  0
  2  3  1  0  0  0  0
  4  3  1  0  0  0  0
  5  4  1  0  0  0  0
  5 17  1  0  0  0  0
  6  5  1  0  0  0  0
  6  8  1  0  0  0  0
  7  6  1  0  0  0  0
  8 10  1  0  0  0  0
  9  8  2  0  0  0  0
 10 16  2  0  0  0  0
 10 11  1  0  0  0  0
 11 12  2  0  0  0  0
 12 13  1  0  0  0  0
 13 14  1  0  0  0  0
 15 13  2  0  0  0  0
 16 15  1  0  0  0  0
 17 18  1  0  0  0  0
 17 16  1  0  0  0  0
 19 20  1  0  0  0  0
 19  5  1  0  0  0  0
 20  2  1  0  0  0  0
 21  1  2  0  0  0  0
 23 22  1  0  0  0  0
 24 23  2  0  0  0  0
 25 24  1  0  0  0  0
 26 25  2  0  0  0  0
 26 27  1  0  0  0  0
 27 29  2  0  0  0  0
 28 27  1  0  0  0  0
 29 23  1  0  0  0  0
M  END
>  <REMARK>
 VINA RESULT:      -9.1      0.000      0.000
  Name = ZINC000049410085
                            x       y       z     vdW  Elec       q    Type
                         _______ _______ _______ _____ _____    ______ ____

>  <Score> 
-9.1

>  <TORSDO>
F 1

$$$$
ZINC000193545175
 OpenBabel12272317403D

 23 25  0  0  0  0  0  0  0  0999 V2000
  169.2330  151.2430  146.8280 C   0  0  0  0  0  0  0  0  0  0  0  0
  169.2880  149.9110  146.5150 N   0  0  0  0  0  0  0  0  0  0  0  0
  170.1090  149.7590  145.5360 C   0  0  0  0  0  0  0  0  0  0  0  0
  170.8260  151.2130  144.9820 S   0  0  0  0  0  0  0  0  0  0  0  0
  169.9810  152.0490  146.1180 N   0  0  0  0  0  0  0  0  0  0  0  0
  167.5200  153.5750  149.2570 C   0  0  0  0  0  0  0  0  0  0  0  0
  168.3380  153.1110  148.2290 C   0  0  0  0  0  0  0  0  0  0  0  0
  168.3750  151.7430  147.9120 C   0  0  0  0  0  0  0  0  0  0  0  0
  167.5660  150.8700  148.6640 C   0  0  0  0  0  0  0  0  0  0  0  0
  166.7530  151.3430  149.6890 C   0  0  0  0  0  0  0  0  0  0  0  0
  166.7260  152.7000  149.9900 C   0  0  0  0  0  0  0  0  0  0  0  0
  166.4420  155.5080  150.4300 C   0  0  0  0  0  0  0  0  0  0  0  0
  167.4580  154.9080  149.5940 O   0  0  0  0  0  0  0  0  0  0  0  0
  170.3280  148.4720  145.0430 N   0  0  0  0  0  0  0  0  0  0  0  0
  169.6570  148.1700  144.3310 H   0  0  0  0  0  0  0  0  0  0  0  0
  171.3180  147.5860  145.3730 C   0  0  0  0  0  0  0  0  0  0  0  0
  172.1430  147.9340  146.2040 O   0  0  0  0  0  0  0  0  0  0  0  0
  171.3640  146.2820  144.7280 C   0  0  0  0  0  0  0  0  0  0  0  0
  171.4960  145.0320  145.2720 C   0  0  0  0  0  0  0  0  0  0  0  0
  171.6830  144.4010  147.0440 Br  0  0  0  0  0  0  0  0  0  0  0  0
  171.4870  144.1050  144.2910 O   0  0  0  0  0  0  0  0  0  0  0  0
  171.3520  144.7530  143.1100 C   0  0  0  0  0  0  0  0  0  0  0  0
  171.2750  146.0810  143.3370 C   0  0  0  0  0  0  0  0  0  0  0  0
  1  8  1  0  0  0  0
  2  1  1  0  0  0  0
  3  2  2  0  0  0  0
  4  3  1  0  0  0  0
  4  5  1  0  0  0  0
  5  1  2  0  0  0  0
  6 13  1  0  0  0  0
  6 11  2  0  0  0  0
  7  6  1  0  0  0  0
  8  7  2  0  0  0  0
  8  9  1  0  0  0  0
  9 10  2  0  0  0  0
 10 11  1  0  0  0  0
 13 12  1  0  0  0  0
 14 16  1  0  0  0  0
 14  3  1  0  0  0  0
 15 14  1  0  0  0  0
 16 17  2  0  0  0  0
 18 19  2  0  0  0  0
 18 16  1  0  0  0  0
 19 20  1  0  0  0  0
 21 19  1  0  0  0  0
 22 23  2  0  0  0  0
 22 21  1  0  0  0  0
 23 18  1  0  0  0  0
M  END
>  <REMARK>
 VINA RESULT:      -7.3      0.000      0.000
  Name = ZINC000193545175
                            x       y       z     vdW  Elec       q    Type
                         _______ _______ _______ _____ _____    ______ ____

>  <Score> 
-7.3

>  <TORSDO>
F 4

$$$$
ZINC000000623420
 OpenBabel12272317403D

 27 28  0  0  0  0  0  0  0  0999 V2000
  166.6660  154.6430  150.2680 C   0  0  0  0  0  0  0  0  0  0  0  0
  165.7600  153.6150  150.0460 C   0  0  0  0  0  0  0  0  0  0  0  0
  164.2660  153.7430  150.3180 C   0  0  0  0  0  0  0  0  0  0  0  0
  166.3610  152.4260  149.5410 C   0  0  0  0  0  0  0  0  0  0  0  0
  167.7290  152.6060  149.3490 C   0  0  0  0  0  0  0  0  0  0  0  0
  168.2720  154.1770  149.7880 S   0  0  0  0  0  0  0  0  0  0  0  0
  168.6100  151.6400  148.8240 N   0  0  0  0  0  0  0  0  0  0  0  0
  168.8790  150.8820  149.4700 H   0  0  0  0  0  0  0  0  0  0  0  0
  169.2030  151.5670  147.5760 C   0  0  0  0  0  0  0  0  0  0  0  0
  169.0230  152.4590  146.7620 O   0  0  0  0  0  0  0  0  0  0  0  0
  170.0490  150.3960  147.3330 C   0  0  0  0  0  0  0  0  0  0  0  0
  169.6670  149.3770  146.4370 C   0  0  0  0  0  0  0  0  0  0  0  0
  168.3600  149.4520  145.6640 C   0  0  0  0  0  0  0  0  0  0  0  0
  170.5000  148.2750  146.2480 C   0  0  0  0  0  0  0  0  0  0  0  0
  171.7040  148.1710  146.9390 C   0  0  0  0  0  0  0  0  0  0  0  0
  172.0890  149.1720  147.8220 C   0  0  0  0  0  0  0  0  0  0  0  0
  171.2700  150.2780  148.0160 C   0  0  0  0  0  0  0  0  0  0  0  0
  166.4630  155.9690  150.8290 C   0  0  0  0  0  0  0  0  0  0  0  0
  166.3180  157.0030  150.1850 O   0  0  0  0  0  0  0  0  0  0  0  0
  166.4220  156.0820  152.1810 O   0  0  0  0  0  0  0  0  0  0  0  0
  166.5830  158.1480  153.2950 C   0  0  0  0  0  0  0  0  0  0  0  0
  165.6010  157.0680  152.8450 C   0  0  0  0  0  0  0  0  0  0  0  0
  165.6690  151.1730  149.2710 C   0  0  0  0  0  0  0  0  0  0  0  0
  165.2850  150.3770  150.1210 O   0  0  0  0  0  0  0  0  0  0  0  0
  165.4150  150.8210  147.9720 O   0  0  0  0  0  0  0  0  0  0  0  0
  164.6150  151.6190  147.0560 C   0  0  0  0  0  0  0  0  0  0  0  0
  165.5730  152.0320  145.9390 C   0  0  0  0  0  0  0  0  0  0  0  0
  1 18  1  0  0  0  0
  2  1  2  0  0  0  0
  2  3  1  0  0  0  0
  4  2  1  0  0  0  0
  5  4  2  0  0  0  0
  5  6  1  0  0  0  0
  6  1  1  0  0  0  0
  7  5  1  0  0  0  0
  7  8  1  0  0  0  0
  9  7  1  0  0  0  0
 10  9  2  0  0  0  0
 11  9  1  0  0  0  0
 11 17  2  0  0  0  0
 12 11  1  0  0  0  0
 13 12  1  0  0  0  0
 14 12  2  0  0  0  0
 14 15  1  0  0  0  0
 15 16  2  0  0  0  0
 16 17  1  0  0  0  0
 18 20  1  0  0  0  0
 19 18  2  0  0  0  0
 20 22  1  0  0  0  0
 22 21  1  0  0  0  0
 23  4  1  0  0  0  0
 23 24  2  0  0  0  0
 25 23  1  0  0  0  0
 26 25  1  0  0  0  0
 27 26  1  0  0  0  0
M  END
>  <REMARK>
 VINA RESULT:      -7.2      0.000      0.000
  Name = ZINC000000623420
                            x       y       z     vdW  Elec       q    Type
                         _______ _______ _______ _____ _____    ______ ____

>  <Score> 
-7.2

>  <TORSDO>
F 8

$$$$
ZINC000049399659
 OpenBabel12272317403D

 27 29  0  0  0  0  0  0  0  0999 V2000
  165.1000  160.3500  157.9040 C   0  0  0  0  0  0  0  0  0  0  0  0
  164.8670  161.8920  156.0020 N   0  0  0  0  0  0  0  0  0  0  0  0
  165.5190  161.2290  155.5570 H   0  0  0  0  0  0  0  0  0  0  0  0
  164.5930  161.6530  157.3260 C   0  0  0  0  0  0  0  0  0  0  0  0
  163.9800  162.4580  157.9960 O   0  0  0  0  0  0  0  0  0  0  0  0
  163.3150  162.8040  154.4100 C   0  0  0  0  0  0  0  0  0  0  0  0
  164.4860  162.9800  155.1650 C   0  0  0  0  0  0  0  0  0  0  0  0
  165.1980  164.1790  155.0860 C   0  0  0  0  0  0  0  0  0  0  0  0
  164.7400  165.1880  154.2370 C   0  0  0  0  0  0  0  0  0  0  0  0
  165.6110  166.6790  154.1250 Cl  0  0  0  0  0  0  0  0  0  0  0  0
  163.5800  165.0100  153.4770 C   0  0  0  0  0  0  0  0  0  0  0  0
  162.8640  163.8180  153.5640 C   0  0  0  0  0  0  0  0  0  0  0  0
  161.2490  161.3840  154.1320 C   0  0  0  0  0  0  0  0  0  0  0  0
  162.6220  161.5980  154.5350 O   0  0  0  0  0  0  0  0  0  0  0  0
  163.6180  159.3870  158.3900 S   0  0  0  0  0  0  0  0  0  0  0  0
  164.2760  158.2080  159.4810 C   0  0  0  0  0  0  0  0  0  0  0  0
  165.2050  158.6150  160.3480 N   0  0  0  0  0  0  0  0  0  0  0  0
  165.7080  157.7220  161.1830 C   0  0  0  0  0  0  0  0  0  0  0  0
  165.2810  156.3980  161.1630 C   0  0  0  0  0  0  0  0  0  0  0  0
  164.3240  156.0390  160.2390 C   0  0  0  0  0  0  0  0  0  0  0  0
  163.8280  156.9400  159.4020 N   0  0  0  0  0  0  0  0  0  0  0  0
  166.6750  158.1320  162.0940 N   0  0  0  0  0  0  0  0  0  0  0  0
  167.0390  159.5610  162.0580 C   0  0  0  0  0  0  0  0  0  0  0  0
  168.4810  159.6480  162.5880 C   0  0  0  0  0  0  0  0  0  0  0  0
  168.4910  159.1050  164.0280 C   0  0  0  0  0  0  0  0  0  0  0  0
  168.0320  157.6370  164.0310 C   0  0  0  0  0  0  0  0  0  0  0  0
  166.6010  157.5740  163.4640 C   0  0  0  0  0  0  0  0  0  0  0  0
  1 15  1  0  0  0  0
  2  4  1  0  0  0  0
  3  2  1  0  0  0  0
  4  1  1  0  0  0  0
  4  5  2  0  0  0  0
  6 14  1  0  0  0  0
  6  7  2  0  0  0  0
  7  2  1  0  0  0  0
  8  7  1  0  0  0  0
  9  8  2  0  0  0  0
 10  9  1  0  0  0  0
 11 12  2  0  0  0  0
 11  9  1  0  0  0  0
 12  6  1  0  0  0  0
 13 14  1  0  0  0  0
 15 16  1  0  0  0  0
 16 17  1  0  0  0  0
 17 18  2  0  0  0  0
 18 22  1  0  0  0  0
 19 18  1  0  0  0  0
 20 19  2  0  0  0  0
 21 16  2  0  0  0  0
 21 20  1  0  0  0  0
 22 27  1  0  0  0  0
 23 22  1  0  0  0  0
 23 24  1  0  0  0  0
 24 25  1  0  0  0  0
 25 26  1  0  0  0  0
 27 26  1  0  0  0  0
M  END
>  <REMARK>
 VINA RESULT:      -6.9      0.000      0.000
  Name = ZINC000049399659
                            x       y       z     vdW  Elec       q    Type
                         _______ _______ _______ _____ _____    ______ ____

>  <Score> 
-6.9

>  <TORSDO>
F 6

$$$$
ZINC000049408611
 OpenBabel12272317403D

 27 30  0  0  0  0  0  0  0  0999 V2000
  170.4630  147.2430  146.5040 N   0  0  0  0  0  0  0  0  0  0  0  0
  170.5870  148.5510  147.0040 C   0  0  0  0  0  0  0  0  0  0  0  0
  169.6790  149.0930  147.9180 C   0  0  0  0  0  0  0  0  0  0  0  0
  169.8760  150.3900  148.3830 C   0  0  0  0  0  0  0  0  0  0  0  0
  168.7630  151.0740  149.5190 Cl  0  0  0  0  0  0  0  0  0  0  0  0
  170.9690  151.1430  147.9460 C   0  0  0  0  0  0  0  0  0  0  0  0
  171.8660  150.5940  147.0330 C   0  0  0  0  0  0  0  0  0  0  0  0
  171.6780  149.3010  146.5570 C   0  0  0  0  0  0  0  0  0  0  0  0
  170.9380  147.0460  144.0510 O   0  0  0  0  0  0  0  0  0  0  0  0
  169.8530  147.1970  144.9540 S   0  0  0  0  0  0  0  0  0  0  0  0
  169.0180  148.3280  144.7580 O   0  0  0  0  0  0  0  0  0  0  0  0
  168.8450  145.6960  144.8950 C   0  0  0  0  0  0  0  0  0  0  0  0
  167.5930  145.6720  145.4540 C   0  0  0  0  0  0  0  0  0  0  0  0
  166.8450  144.4930  145.3830 N   0  0  0  0  0  0  0  0  0  0  0  0
  165.6200  144.2310  145.8300 C   0  0  0  0  0  0  0  0  0  0  0  0
  165.3050  143.0060  145.5370 N   0  0  0  0  0  0  0  0  0  0  0  0
  166.3620  142.4450  144.8790 N   0  0  0  0  0  0  0  0  0  0  0  0
  167.2950  143.3660  144.7940 C   0  0  0  0  0  0  0  0  0  0  0  0
  168.6030  143.3690  144.2270 C   0  0  0  0  0  0  0  0  0  0  0  0
  169.3630  144.5030  144.2770 C   0  0  0  0  0  0  0  0  0  0  0  0
  171.6960  146.4450  146.4950 C   0  0  0  0  0  0  0  0  0  0  0  0
  171.3560  145.1620  147.2320 C   0  0  0  0  0  0  0  0  0  0  0  0
  170.3620  145.1450  148.2120 C   0  0  0  0  0  0  0  0  0  0  0  0
  170.0520  143.9620  148.8770 C   0  0  0  0  0  0  0  0  0  0  0  0
  170.7330  142.7900  148.5680 C   0  0  0  0  0  0  0  0  0  0  0  0
  171.7240  142.8000  147.5910 C   0  0  0  0  0  0  0  0  0  0  0  0
  172.0320  143.9820  146.9240 C   0  0  0  0  0  0  0  0  0  0  0  0
  1  2  1  0  0  0  0
  2  3  1  0  0  0  0
  3  4  2  0  0  0  0
  4  5  1  0  0  0  0
  6  4  1  0  0  0  0
  7  6  2  0  0  0  0
  8  2  2  0  0  0  0
  8  7  1  0  0  0  0
  9 10  2  0  0  0  0
 10  1  1  0  0  0  0
 11 10  2  0  0  0  0
 12 10  1  0  0  0  0
 12 13  2  0  0  0  0
 14 13  1  0  0  0  0
 14 15  1  0  0  0  0
 16 15  2  0  0  0  0
 17 16  1  0  0  0  0
 18 17  2  0  0  0  0
 18 14  1  0  0  0  0
 19 20  2  0  0  0  0
 19 18  1  0  0  0  0
 20 12  1  0  0  0  0
 21  1  1  0  0  0  0
 21 22  1  0  0  0  0
 22 23  1  0  0  0  0
 23 24  2  0  0  0  0
 25 24  1  0  0  0  0
 26 25  2  0  0  0  0
 27 22  2  0  0  0  0
 27 26  1  0  0  0  0
M  END
>  <REMARK>
 VINA RESULT:      -8.1      0.000      0.000
  Name = ZINC000049408611
                            x       y       z     vdW  Elec       q    Type
                         _______ _______ _______ _____ _____    ______ ____

>  <Score> 
-8.1

>  <TORSDO>
F 5

$$$$
ZINC000000622958
 OpenBabel12272317403D

 28 32  0  0  1  0  0  0  0  0999 V2000
  170.1800  144.9680  144.6300 C   0  0  2  0  0  0  0  0  0  0  0  0
  170.8180  145.3220  145.8730 N   0  0  1  0  0  0  0  0  0  0  0  0
  171.1700  146.5880  145.9150 C   0  0  2  0  0  0  0  0  0  0  0  0
  171.8690  147.2660  147.0850 C   0  0  0  0  0  0  0  0  0  0  0  0
  170.8470  148.2160  147.7520 C   0  0  0  0  0  0  0  0  0  0  0  0
  170.7270  149.5120  146.9270 C   0  0  0  0  0  0  0  0  0  0  0  0
  170.0660  149.3770  145.5390 C   0  0  0  0  0  0  0  0  0  0  0  0
  171.0100  148.6370  144.5710 C   0  0  0  0  0  0  0  0  0  0  0  0
  170.8110  147.2010  144.8170 N   0  0  2  0  0  0  0  0  0  0  0  0
  170.0600  146.3250  143.8900 C   0  0  0  0  0  0  0  0  0  0  0  0
  168.8100  144.3230  144.8670 C   0  0  0  0  0  0  0  0  0  0  0  0
  167.8170  145.0420  145.5560 C   0  0  0  0  0  0  0  0  0  0  0  0
  166.5860  144.4450  145.7700 C   0  0  0  0  0  0  0  0  0  0  0  0
  165.5260  144.9800  146.4120 O   0  0  0  0  0  0  0  0  0  0  0  0
  164.4610  143.9450  146.3740 C   0  0  0  0  0  0  0  0  0  0  0  0
  165.0580  142.8030  145.6440 O   0  0  0  0  0  0  0  0  0  0  0  0
  166.3150  143.1770  145.3240 C   0  0  0  0  0  0  0  0  0  0  0  0
  167.2670  142.4400  144.6390 C   0  0  0  0  0  0  0  0  0  0  0  0
  168.5190  143.0190  144.4130 C   0  0  0  0  0  0  0  0  0  0  0  0
  170.9740  144.4020  146.9430 C   0  0  1  0  0  0  0  0  0  0  0  0
  170.0840  144.4350  148.0160 C   0  0  0  0  0  0  0  0  0  0  0  0
  170.2390  143.5190  149.0530 C   0  0  0  0  0  0  0  0  0  0  0  0
  171.2750  142.5820  149.0090 C   0  0  2  0  0  0  0  0  0  0  0  0
  171.4630  141.4450  150.2990 Cl  0  0  0  0  0  0  0  0  0  0  0  0
  172.1620  142.5590  147.9270 C   0  0  0  0  0  0  0  0  0  0  0  0
  172.0130  143.4720  146.8880 C   0  0  0  0  0  0  0  0  0  0  0  0
  171.0890  144.1130  143.9500 O   0  0  0  0  0  0  0  0  0  0  0  0
  171.5930  144.6530  143.3230 H   0  0  0  0  0  0  0  0  0  0  0  0
  1 27  1  6  0  0  0
  1 11  1  0  0  0  0
  1  2  1  0  0  0  0
  2  3  1  0  0  0  0
  2 20  1  1  0  0  0
  3  4  1  1  0  0  0
  4  5  1  0  0  0  0
  6  5  1  0  0  0  0
  7  6  1  0  0  0  0
  8  9  1  0  0  0  0
  8  7  1  0  0  0  0
  9 10  1  1  0  0  0
  9  3  1  0  0  0  0
 10  1  1  0  0  0  0
 11 12  2  0  0  0  0
 12 13  1  0  0  0  0
 13 14  1  0  0  0  0
 15 14  1  0  0  0  0
 16 15  1  0  0  0  0
 17 16  1  0  0  0  0
 17 13  2  0  0  0  0
 18 17  1  0  0  0  0
 19 18  2  0  0  0  0
 19 11  1  0  0  0  0
 20 26  1  6  0  0  0
 20 21  1  0  0  0  0
 21 22  2  0  0  0  0
 23 22  1  0  0  0  0
 23 24  1  1  0  0  0
 25 23  1  0  0  0  0
 26 25  2  0  0  0  0
 28 27  1  0  0  0  0
M  END
>  <REMARK>
 VINA RESULT:      -8.7      0.000      0.000
  Name = ZINC000000622958
                            x       y       z     vdW  Elec       q    Type
                         _______ _______ _______ _____ _____    ______ ____

>  <Score> 
-8.7

>  <TORSDO>
F 3

$$$$
ZINC000000622956
 OpenBabel12272317403D

 28 32  0  0  1  0  0  0  0  0999 V2000
  168.9470  149.1210  146.1630 C   0  0  1  0  0  0  0  0  0  0  0  0
  169.4050  149.0920  147.5310 N   0  0  1  0  0  0  0  0  0  0  0  0
  170.0540  150.1860  147.8620 C   0  0  2  0  0  0  0  0  0  0  0  0
  170.6300  150.4810  149.2400 C   0  0  0  0  0  0  0  0  0  0  0  0
  169.7700  151.5960  149.8770 C   0  0  0  0  0  0  0  0  0  0  0  0
  170.1730  152.9630  149.2930 C   0  0  0  0  0  0  0  0  0  0  0  0
  169.8200  153.1980  147.8090 C   0  0  0  0  0  0  0  0  0  0  0  0
  170.7320  152.3460  146.9050 C   0  0  0  0  0  0  0  0  0  0  0  0
  170.1240  151.0100  146.8490 N   0  0  2  0  0  0  0  0  0  0  0  0
  169.4260  150.5000  145.6500 C   0  0  0  0  0  0  0  0  0  0  0  0
  169.5540  147.9790  145.3400 C   0  0  0  0  0  0  0  0  0  0  0  0
  168.8700  146.7630  145.1600 C   0  0  0  0  0  0  0  0  0  0  0  0
  169.4650  145.7700  144.3970 C   0  0  0  0  0  0  0  0  0  0  0  0
  168.9620  144.5490  144.1200 O   0  0  0  0  0  0  0  0  0  0  0  0
  169.9690  143.8760  143.2600 C   0  0  0  0  0  0  0  0  0  0  0  0
  171.0720  144.8570  143.1180 O   0  0  0  0  0  0  0  0  0  0  0  0
  170.6920  145.9500  143.8130 C   0  0  0  0  0  0  0  0  0  0  0  0
  171.3910  147.1360  143.9620 C   0  0  0  0  0  0  0  0  0  0  0  0
  170.8140  148.1520  144.7260 C   0  0  0  0  0  0  0  0  0  0  0  0
  169.1040  148.0410  148.4300 C   0  0  2  0  0  0  0  0  0  0  0  0
  170.0350  147.0170  148.5930 C   0  0  0  0  0  0  0  0  0  0  0  0
  169.7500  145.9750  149.4710 C   0  0  0  0  0  0  0  0  0  0  0  0
  168.5400  145.9670  150.1730 C   0  0  2  0  0  0  0  0  0  0  0  0
  168.1880  144.6710  151.2630 Cl  0  0  0  0  0  0  0  0  0  0  0  0
  167.6130  147.0000  149.9980 C   0  0  0  0  0  0  0  0  0  0  0  0
  167.8930  148.0440  149.1210 C   0  0  0  0  0  0  0  0  0  0  0  0
  167.5280  149.0590  146.2100 O   0  0  0  0  0  0  0  0  0  0  0  0
  167.2370  148.4130  145.5480 H   0  0  0  0  0  0  0  0  0  0  0  0
  1 11  1  6  0  0  0
  1 27  1  0  0  0  0
  1  2  1  0  0  0  0
  2  3  1  0  0  0  0
  2 20  1  1  0  0  0
  3  4  1  1  0  0  0
  4  5  1  0  0  0  0
  6  5  1  0  0  0  0
  7  6  1  0  0  0  0
  8  7  1  0  0  0  0
  9 10  1  1  0  0  0
  9  8  1  0  0  0  0
  9  3  1  0  0  0  0
 10  1  1  0  0  0  0
 12 11  2  0  0  0  0
 13 12  1  0  0  0  0
 14 13  1  0  0  0  0
 15 14  1  0  0  0  0
 16 15  1  0  0  0  0
 16 17  1  0  0  0  0
 17 18  1  0  0  0  0
 17 13  2  0  0  0  0
 18 19  2  0  0  0  0
 19 11  1  0  0  0  0
 20 21  1  6  0  0  0
 20 26  1  0  0  0  0
 21 22  2  0  0  0  0
 22 23  1  0  0  0  0
 23 24  1  6  0  0  0
 25 23  1  0  0  0  0
 26 25  2  0  0  0  0
 28 27  1  0  0  0  0
M  END
>  <REMARK>
 VINA RESULT:      -8.0      0.000      0.000
  Name = ZINC000000622956
                            x       y       z     vdW  Elec       q    Type
                         _______ _______ _______ _____ _____    ______ ____

>  <Score> 
-8.0

>  <TORSDO>
F 3

$$$$
=
 OpenBabel12272317403D

 22 23  0  0  0  0  0  0  0  0999 V2000
  166.5370  149.8390  150.6060 C   0  0  0  0  0  0  0  0  0  0  0  0
  166.0070  151.0750  150.2490 C   0  0  0  0  0  0  0  0  0  0  0  0
  166.7520  152.0100  149.5910 C   0  0  0  0  0  0  0  0  0  0  0  0
  168.0320  151.7100  149.2850 C   0  0  0  0  0  0  0  0  0  0  0  0
  168.6490  150.4780  149.6060 C   0  0  0  0  0  0  0  0  0  0  0  0
  167.8460  149.5870  150.2650 C   0  0  0  0  0  0  0  0  0  0  0  0
  164.6250  149.5490  152.1920 C   0  0  0  0  0  0  0  0  0  0  0  0
  165.6560  148.8830  151.3100 C   0  0  0  0  0  0  0  0  0  0  0  0
  166.4400  147.8220  152.0790 C   0  0  0  0  0  0  0  0  0  0  0  0
  164.8980  148.0840  150.3020 C   0  0  0  0  0  0  0  0  0  0  0  0
  164.3120  147.4600  149.4940 N   0  0  0  0  0  0  0  0  0  0  0  0
  166.1990  153.3580  149.2240 C   0  0  0  0  0  0  0  0  0  0  0  0
  164.8820  153.5710  149.8820 C   0  0  0  0  0  0  0  0  0  0  0  0
  166.1580  153.4210  147.7060 C   0  0  0  0  0  0  0  0  0  0  0  0
  167.1130  154.3920  149.7010 C   0  0  0  0  0  0  0  0  0  0  0  0
  167.8510  155.2290  150.0860 N   0  0  0  0  0  0  0  0  0  0  0  0
  170.0110  150.3710  149.1660 C   0  0  0  0  0  0  0  0  0  0  0  0
  170.3480  150.5810  147.8110 N   0  0  0  0  0  0  0  0  0  0  0  0
  171.0730  151.5840  147.3380 N   0  0  0  0  0  0  0  0  0  0  0  0
  171.1510  151.4920  146.0040 C   0  0  0  0  0  0  0  0  0  0  0  0
  170.4560  150.3970  145.6110 N   0  0  0  0  0  0  0  0  0  0  0  0
  169.9670  149.8470  146.7380 C   0  0  0  0  0  0  0  0  0  0  0  0
  1  8  1  0  0  0  0
  2  1  2  0  0  0  0
  3  2  1  0  0  0  0
  4  3  2  0  0  0  0
  4  5  1  0  0  0  0
  5  6  2  0  0  0  0
  6  1  1  0  0  0  0
  8  9  1  0  0  0  0
  8  7  1  0  0  0  0
 10  8  1  0  0  0  0
 11 10  3  0  0  0  0
 12  3  1  0  0  0  0
 12 15  1  0  0  0  0
 12 13  1  0  0  0  0
 14 12  1  0  0  0  0
 15 16  3  0  0  0  0
 17  5  1  0  0  0  0
 18 17  1  0  0  0  0
 19 18  1  0  0  0  0
 20 19  2  0  0  0  0
 21 20  1  0  0  0  0
 21 22  2  0  0  0  0
 22 18  1  0  0  0  0
M  END
>  <REMARK>
 VINA RESULT:      -6.6      0.000      0.000
  Name = 
                            x       y       z     vdW  Elec       q    Type
                         _______ _______ _______ _____ _____    ______ ____

>  <Score> 
-6.6

>  <TORSDO>
F 6

$$$$
ZINC000049483930
 OpenBabel12272317403D

 27 31  0  0  0  0  0  0  0  0999 V2000
  194.3010   78.7300  159.0560 O   0  0  0  0  0  0  0  0  0  0  0  0
  193.7940   78.9940  160.1270 C   0  0  0  0  0  0  0  0  0  0  0  0
  194.3070   80.0310  160.8440 N   0  0  0  0  0  0  0  0  0  0  0  0
  193.9010   80.6690  162.0970 C   0  0  0  0  0  0  0  0  0  0  0  0
  195.0950   81.6470  161.8610 C   0  0  0  0  0  0  0  0  0  0  0  0
  195.3770   80.9630  160.4890 C   0  0  0  0  0  0  0  0  0  0  0  0
  196.2230   81.4150  162.8420 C   0  0  0  0  0  0  0  0  0  0  0  0
  196.1950   80.3990  163.6820 O   0  0  0  0  0  0  0  0  0  0  0  0
  197.2920   80.4370  164.4060 N   0  0  0  0  0  0  0  0  0  0  0  0
  197.9440   81.4660  163.9830 C   0  0  0  0  0  0  0  0  0  0  0  0
  197.2780   82.1050  162.9870 N   0  0  0  0  0  0  0  0  0  0  0  0
  199.2380   81.8860  164.5060 C   0  0  0  0  0  0  0  0  0  0  0  0
  199.7490   81.4830  166.1190 S   0  0  0  0  0  0  0  0  0  0  0  0
  201.2490   82.3080  165.8980 C   0  0  0  0  0  0  0  0  0  0  0  0
  201.3460   82.8590  164.6530 C   0  0  0  0  0  0  0  0  0  0  0  0
  200.2100   82.6220  163.8660 C   0  0  0  0  0  0  0  0  0  0  0  0
  192.6050   78.2280  160.6690 C   0  0  0  0  0  0  0  0  0  0  0  0
  193.2830   76.6260  161.2420 S   0  0  0  0  0  0  0  0  0  0  0  0
  192.4080   76.4110  162.7220 C   0  0  0  0  0  0  0  0  0  0  0  0
  191.3690   77.2560  162.9750 O   0  0  0  0  0  0  0  0  0  0  0  0
  190.8990   76.8500  164.1620 C   0  0  0  0  0  0  0  0  0  0  0  0
  189.8360   77.3540  164.9040 C   0  0  0  0  0  0  0  0  0  0  0  0
  189.5490   76.7430  166.1210 C   0  0  0  0  0  0  0  0  0  0  0  0
  190.3230   75.6530  166.5660 C   0  0  0  0  0  0  0  0  0  0  0  0
  191.3810   75.1720  165.7980 C   0  0  0  0  0  0  0  0  0  0  0  0
  191.6690   75.7850  164.5750 C   0  0  0  0  0  0  0  0  0  0  0  0
  192.6330   75.5210  163.6380 N   0  0  0  0  0  0  0  0  0  0  0  0
  1  2  2  0  0  0  0
  2 17  1  0  0  0  0
  2  3  1  0  0  0  0
  3  4  1  0  0  0  0
  5  4  1  0  0  0  0
  5  7  1  0  0  0  0
  6  3  1  0  0  0  0
  6  5  1  0  0  0  0
  7 11  2  0  0  0  0
  7  8  1  0  0  0  0
  8  9  1  0  0  0  0
 10  9  2  0  0  0  0
 10 12  1  0  0  0  0
 11 10  1  0  0  0  0
 12 13  1  0  0  0  0
 14 13  1  0  0  0  0
 15 14  2  0  0  0  0
 16 12  2  0  0  0  0
 16 15  1  0  0  0  0
 17 18  1  0  0  0  0
 18 19  1  0  0  0  0
 19 20  1  0  0  0  0
 19 27  2  0  0  0  0
 20 21  1  0  0  0  0
 21 26  2  0  0  0  0
 21 22  1  0  0  0  0
 22 23  2  0  0  0  0
 23 24  1  0  0  0  0
 25 24  2  0  0  0  0
 26 25  1  0  0  0  0
 27 26  1  0  0  0  0
M  END
>  <REMARK>
 VINA RESULT:      -7.0      0.000      0.000
  Name = ZINC000049483930
                            x       y       z     vdW  Elec       q    Type
                         _______ _______ _______ _____ _____    ______ ____

>  <Score> 
-7.0

>  <TORSDO>
F 5

$$$$
ZINC000049420917
 OpenBabel12272317403D

 28 31  0  0  0  0  0  0  0  0999 V2000
  170.0410  148.7090  147.2430 N   0  0  0  0  0  0  0  0  0  0  0  0
  169.2410  149.1280  146.1510 C   0  0  0  0  0  0  0  0  0  0  0  0
  168.5820  148.1830  145.4650 N   0  0  0  0  0  0  0  0  0  0  0  0
  167.8280  148.5390  144.4270 C   0  0  0  0  0  0  0  0  0  0  0  0
  167.6960  149.8700  144.0370 C   0  0  0  0  0  0  0  0  0  0  0  0
  168.3670  150.8620  144.7440 C   0  0  0  0  0  0  0  0  0  0  0  0
  169.1610  150.4730  145.8150 C   0  0  0  0  0  0  0  0  0  0  0  0
  170.0400  151.5620  146.8850 S   0  0  0  0  0  0  0  0  0  0  0  0
  171.4040  151.5850  146.5150 O   0  0  0  0  0  0  0  0  0  0  0  0
  169.3700  152.8100  146.9310 O   0  0  0  0  0  0  0  0  0  0  0  0
  169.9030  150.8230  148.3420 N   0  0  0  0  0  0  0  0  0  0  0  0
  170.4030  149.5590  148.2990 C   0  0  0  0  0  0  0  0  0  0  0  0
  171.1530  149.1650  149.1870 O   0  0  0  0  0  0  0  0  0  0  0  0
  172.0480  143.3620  147.3100 C   0  0  0  0  0  0  0  0  0  0  0  0
  171.5120  144.7780  147.2830 C   0  0  0  0  0  0  0  0  0  0  0  0
  170.3450  145.0980  147.9790 C   0  0  0  0  0  0  0  0  0  0  0  0
  169.8530  146.3990  147.9690 C   0  0  0  0  0  0  0  0  0  0  0  0
  170.5420  147.3800  147.2580 C   0  0  0  0  0  0  0  0  0  0  0  0
  171.7120  147.0770  146.5620 C   0  0  0  0  0  0  0  0  0  0  0  0
  172.1940  145.7730  146.5800 C   0  0  0  0  0  0  0  0  0  0  0  0
  170.2330  151.6870  149.4730 C   0  0  0  0  0  0  0  0  0  0  0  0
  168.9120  152.3460  149.8170 C   0  0  0  0  0  0  0  0  0  0  0  0
  168.8850  153.6850  150.2240 C   0  0  0  0  0  0  0  0  0  0  0  0
  167.6750  154.2980  150.5360 C   0  0  0  0  0  0  0  0  0  0  0  0
  166.5050  153.5590  150.4310 C   0  0  0  0  0  0  0  0  0  0  0  0
  165.3260  154.1520  150.7340 F   0  0  0  0  0  0  0  0  0  0  0  0
  166.5030  152.2320  150.0230 C   0  0  0  0  0  0  0  0  0  0  0  0
  167.7170  151.6250  149.7140 C   0  0  0  0  0  0  0  0  0  0  0  0
  1 18  1  0  0  0  0
  1 12  1  0  0  0  0
  2  1  1  0  0  0  0
  3  2  2  0  0  0  0
  4  3  1  0  0  0  0
  5  4  2  0  0  0  0
  5  6  1  0  0  0  0
  6  7  2  0  0  0  0
  7  2  1  0  0  0  0
  7  8  1  0  0  0  0
  8 10  2  0  0  0  0
  8 11  1  0  0  0  0
  9  8  2  0  0  0  0
 11 21  1  0  0  0  0
 12 11  1  0  0  0  0
 12 13  2  0  0  0  0
 15 14  1  0  0  0  0
 15 16  2  0  0  0  0
 17 16  1  0  0  0  0
 18 17  2  0  0  0  0
 19 20  2  0  0  0  0
 19 18  1  0  0  0  0
 20 15  1  0  0  0  0
 21 22  1  0  0  0  0
 22 23  1  0  0  0  0
 23 24  2  0  0  0  0
 25 24  1  0  0  0  0
 25 26  1  0  0  0  0
 27 25  2  0  0  0  0
 28 22  2  0  0  0  0
 28 27  1  0  0  0  0
M  END
>  <REMARK>
 VINA RESULT:      -8.7      0.000      0.000
  Name = ZINC000049420917
                            x       y       z     vdW  Elec       q    Type
                         _______ _______ _______ _____ _____    ______ ____

>  <Score> 
-8.7

>  <TORSDO>
F 3

$$$$
ZINC000049483826
 OpenBabel12272317403D

 25 28  0  0  0  0  0  0  0  0999 V2000
  170.4840  147.5140  145.7250 N   0  0  0  0  0  0  0  0  0  0  0  0
  169.7570  148.6130  145.0800 C   0  0  0  0  0  0  0  0  0  0  0  0
  170.9400  149.5190  145.5060 C   0  0  0  0  0  0  0  0  0  0  0  0
  171.3300  148.4110  146.5180 C   0  0  0  0  0  0  0  0  0  0  0  0
  170.4870  150.7910  146.1800 C   0  0  0  0  0  0  0  0  0  0  0  0
  171.1930  151.8900  146.0240 O   0  0  0  0  0  0  0  0  0  0  0  0
  170.6040  152.8530  146.6990 N   0  0  0  0  0  0  0  0  0  0  0  0
  169.5650  152.3090  147.2360 C   0  0  0  0  0  0  0  0  0  0  0  0
  169.4720  150.9920  146.9170 N   0  0  0  0  0  0  0  0  0  0  0  0
  168.6130  153.0190  148.0800 C   0  0  0  0  0  0  0  0  0  0  0  0
  168.9770  153.4280  149.7300 S   0  0  0  0  0  0  0  0  0  0  0  0
  167.4350  154.1770  149.9330 C   0  0  0  0  0  0  0  0  0  0  0  0
  166.6870  154.1130  148.7920 C   0  0  0  0  0  0  0  0  0  0  0  0
  167.3520  153.4580  147.7450 C   0  0  0  0  0  0  0  0  0  0  0  0
  171.0820  146.2410  144.8760 S   0  0  0  0  0  0  0  0  0  0  0  0
  170.8710  146.4700  143.4900 O   0  0  0  0  0  0  0  0  0  0  0  0
  172.4300  146.0410  145.2840 O   0  0  0  0  0  0  0  0  0  0  0  0
  170.7590  145.1350  147.8660 C   0  0  0  0  0  0  0  0  0  0  0  0
  170.0130  144.4050  146.7600 C   0  0  0  0  0  0  0  0  0  0  0  0
  170.0910  144.8170  145.4140 C   0  0  0  0  0  0  0  0  0  0  0  0
  169.3730  144.1040  144.4480 C   0  0  0  0  0  0  0  0  0  0  0  0
  168.5990  143.0030  144.8040 C   0  0  0  0  0  0  0  0  0  0  0  0
  167.7270  142.1320  143.5890 Cl  0  0  0  0  0  0  0  0  0  0  0  0
  168.5260  142.6000  146.1340 C   0  0  0  0  0  0  0  0  0  0  0  0
  169.2300  143.3010  147.1040 C   0  0  0  0  0  0  0  0  0  0  0  0
  1  4  1  0  0  0  0
  2  3  1  0  0  0  0
  2  1  1  0  0  0  0
  3  5  1  0  0  0  0
  3  4  1  0  0  0  0
  5  9  2  0  0  0  0
  6  5  1  0  0  0  0
  6  7  1  0  0  0  0
  7  8  2  0  0  0  0
  8 10  1  0  0  0  0
  9  8  1  0  0  0  0
 10 11  1  0  0  0  0
 11 12  1  0  0  0  0
 13 12  2  0  0  0  0
 14 10  2  0  0  0  0
 14 13  1  0  0  0  0
 15 17  2  0  0  0  0
 15 20  1  0  0  0  0
 15  1  1  0  0  0  0
 16 15  2  0  0  0  0
 19 25  1  0  0  0  0
 19 18  1  0  0  0  0
 20 19  2  0  0  0  0
 21 22  2  0  0  0  0
 21 20  1  0  0  0  0
 22 24  1  0  0  0  0
 23 22  1  0  0  0  0
 24 25  2  0  0  0  0
M  END
>  <REMARK>
 VINA RESULT:      -7.9      0.000      0.000
  Name = ZINC000049483826
                            x       y       z     vdW  Elec       q    Type
                         _______ _______ _______ _____ _____    ______ ____

>  <Score> 
-7.9

>  <TORSDO>
F 4

$$$$
=
 OpenBabel12272317403D

 60 68  0  0  1  0  0  0  0  0999 V2000
  169.6380  144.5440  154.7950 C   0  0  2  0  0  0  0  0  0  0  0  0
  170.8890  144.1220  155.6870 C   0  0  2  0  0  0  0  0  0  0  0  0
  171.1270  145.5130  156.3260 N   0  0  1  0  0  0  0  0  0  0  0  0
  172.1360  146.1890  155.7280 C   0  0  0  0  0  0  0  0  0  0  0  0
  172.2200  145.6640  154.2860 C   0  0  0  0  0  0  0  0  0  0  0  0
  169.9570  146.2770  156.4410 C   0  0  0  0  0  0  0  0  0  0  0  0
  169.7040  146.8070  155.0390 C   0  0  0  0  0  0  0  0  0  0  0  0
  172.1040  144.3380  154.6280 C   0  0  2  0  0  0  0  0  0  0  0  0
  172.0260  143.2340  153.5010 C   0  0  2  0  0  0  0  0  0  0  0  0
  170.6110  143.5430  152.8540 C   0  0  2  0  0  0  0  0  0  0  0  0
  170.5710  144.7920  152.3680 O   0  0  0  0  0  0  0  0  0  0  0  0
  171.8250  142.0920  154.4330 N   0  0  0  0  0  0  0  0  0  0  0  0
  170.9030  141.1160  154.4480 C   0  0  0  0  0  0  0  0  0  0  0  0
  170.8160  140.1780  155.2600 O   0  0  0  0  0  0  0  0  0  0  0  0
  172.9390  142.3280  155.3200 C   0  0  0  0  0  0  0  0  0  0  0  0
  173.6980  141.3750  155.9530 C   0  0  0  0  0  0  0  0  0  0  0  0
  174.7560  141.8250  156.7490 C   0  0  0  0  0  0  0  0  0  0  0  0
  175.0290  143.1510  156.8970 C   0  0  0  0  0  0  0  0  0  0  0  0
  174.2220  144.0550  156.2290 C   0  0  0  0  0  0  0  0  0  0  0  0
  173.1620  143.6780  155.4300 C   0  0  0  0  0  0  0  0  0  0  0  0
  169.4380  143.2000  153.8710 C   0  0  2  0  0  0  0  0  0  0  0  0
  169.5470  145.7630  154.2320 C   0  0  0  0  0  0  0  0  0  0  0  0
  176.1400  143.5480  157.7920 C   0  0  2  0  0  0  0  0  0  0  0  0
  176.6100  144.9360  157.5360 C   0  0  0  0  0  0  0  0  0  0  0  0
  177.5950  145.5450  158.2520 C   0  0  0  0  0  0  0  0  0  0  0  0
  177.7540  146.8380  157.7110 C   0  0  0  0  0  0  0  0  0  0  0  0
  176.8500  146.9750  156.6730 C   0  0  0  0  0  0  0  0  0  0  0  0
  176.8130  148.1790  155.9750 C   0  0  0  0  0  0  0  0  0  0  0  0
  177.6440  149.2350  156.2820 C   0  0  0  0  0  0  0  0  0  0  0  0
  178.5410  149.1030  157.3080 C   0  0  0  0  0  0  0  0  0  0  0  0
  178.5700  147.9140  157.9910 C   0  0  0  0  0  0  0  0  0  0  0  0
  178.3860  145.0410  159.3740 C   0  0  0  0  0  0  0  0  0  0  0  0
  179.8410  144.9310  159.2180 C   0  0  0  0  0  0  0  0  0  0  0  0
  180.3500  143.7710  158.5630 N   0  0  1  0  0  0  0  0  0  0  0  0
  180.6030  142.6260  159.4120 C   0  0  0  0  0  0  0  0  0  0  0  0
  180.3940  141.3030  158.7350 C   0  0  2  0  0  0  0  0  0  0  0  0
  178.9710  141.1100  158.1890 C   0  0  0  0  0  0  0  0  0  0  0  0
  178.3480  142.5570  158.5480 C   0  0  1  0  0  0  0  0  0  0  0  0
  180.5560  140.3220  159.7420 O   0  0  0  0  0  0  0  0  0  0  0  0
  179.4240  143.3420  157.5690 C   0  0  0  0  0  0  0  0  0  0  0  0
  176.1920  145.8320  156.5990 N   0  0  0  0  0  0  0  0  0  0  0  0
  177.2200  142.5690  157.4180 C   0  0  0  0  0  0  0  0  0  0  0  0
  181.3630  141.0280  157.6370 C   0  0  0  0  0  0  0  0  0  0  0  0
  181.3300  139.5630  157.2860 C   0  0  0  0  0  0  0  0  0  0  0  0
  175.6630  143.5190  159.1680 C   0  0  0  0  0  0  0  0  0  0  0  0
  174.8560  144.4760  159.4940 O   0  0  0  0  0  0  0  0  0  0  0  0
  175.9140  142.6620  160.1950 O   0  0  0  0  0  0  0  0  0  0  0  0
  175.9890  143.0700  161.5470 C   0  0  0  0  0  0  0  0  0  0  0  0
  168.6000  143.4390  156.4790 C   0  0  0  0  0  0  0  0  0  0  0  0
  168.4920  144.3030  155.8110 C   0  0  0  0  0  0  0  0  0  0  0  0
  170.6270  142.6720  151.6660 C   0  0  0  0  0  0  0  0  0  0  0  0
  169.6470  142.3470  150.9550 O   0  0  0  0  0  0  0  0  0  0  0  0
  171.8260  142.0980  151.2080 O   0  0  0  0  0  0  0  0  0  0  0  0
  171.9940  141.6110  149.9050 C   0  0  0  0  0  0  0  0  0  0  0  0
  175.5150  140.8040  157.3770 O   0  0  0  0  0  0  0  0  0  0  0  0
  175.0300  139.4930  157.5100 C   0  0  0  0  0  0  0  0  0  0  0  0
  168.3190  143.8520  153.0800 O   0  0  0  0  0  0  0  0  0  0  0  0
  167.1610  143.1370  153.0600 C   0  0  0  0  0  0  0  0  0  0  0  0
  166.9500  141.9300  152.9020 O   0  0  0  0  0  0  0  0  0  0  0  0
  165.8840  143.9360  153.2630 C   0  0  0  0  0  0  0  0  0  0  0  0
  1  2  1  0  0  0  0
  1 50  1  1  0  0  0
  2  8  1  6  0  0  0
  2  3  1  0  0  0  0
  3  4  1  6  0  0  0
  3  6  1  0  0  0  0
  5  4  1  0  0  0  0
  7  6  1  0  0  0  0
  8  5  1  6  0  0  0
  8 20  1  0  0  0  0
  9 12  1  1  0  0  0
  9  8  1  0  0  0  0
 10 51  1  6  0  0  0
 10  9  1  0  0  0  0
 10 21  1  0  0  0  0
 11 10  1  0  0  0  0
 12 13  1  0  0  0  0
 12 15  1  0  0  0  0
 13 14  2  0  0  0  0
 15 20  2  0  0  0  0
 15 16  1  0  0  0  0
 16 17  2  0  0  0  0
 17 18  1  0  0  0  0
 17 55  1  0  0  0  0
 19 18  2  0  0  0  0
 20 19  1  0  0  0  0
 21 57  1  6  0  0  0
 21  1  1  0  0  0  0
 22  1  1  0  0  0  0
 22  7  1  0  0  0  0
 23 18  1  6  0  0  0
 23 45  1  0  0  0  0
 24 23  1  0  0  0  0
 24 25  2  0  0  0  0
 25 32  1  0  0  0  0
 26 31  1  0  0  0  0
 26 25  1  0  0  0  0
 27 26  2  0  0  0  0
 28 29  2  0  0  0  0
 28 27  1  0  0  0  0
 29 30  1  0  0  0  0
 30 31  2  0  0  0  0
 33 32  1  0  0  0  0
 34 40  1  6  0  0  0
 34 33  1  0  0  0  0
 34 35  1  0  0  0  0
 36 43  1  6  0  0  0
 36 35  1  0  0  0  0
 36 39  1  0  0  0  0
 37 38  1  0  0  0  0
 37 36  1  0  0  0  0
 38 42  1  6  0  0  0
 40 38  1  0  0  0  0
 41 27  1  0  0  0  0
 41 24  1  0  0  0  0
 42 23  1  0  0  0  0
 44 43  1  0  0  0  0
 45 46  2  0  0  0  0
 45 47  1  0  0  0  0
 47 48  1  0  0  0  0
 50 49  2  0  0  0  0
 52 51  2  0  0  0  0
 53 51  1  0  0  0  0
 54 53  1  0  0  0  0
 55 56  1  0  0  0  0
 58 57  1  0  0  0  0
 58 60  1  0  0  0  0
 59 58  2  0  0  0  0
M  END
>  <REMARK>
 VINA RESULT:      -8.1      0.000      0.000
  Name = 
                            x       y       z     vdW  Elec       q    Type
                         _______ _______ _______ _____ _____    ______ ____

>  <Score> 
-8.1

>  <TORSDO>
F 10

$$$$
ZINC000000622877
 OpenBabel12272317403D

 24 26  0  0  0  0  0  0  0  0999 V2000
  200.8220  115.1610  146.6080 O   0  0  0  0  0  0  0  0  0  0  0  0
  201.1400  114.3570  145.7460 C   0  0  0  0  0  0  0  0  0  0  0  0
  201.2690  114.7600  144.4530 N   0  0  0  0  0  0  0  0  0  0  0  0
  201.7110  114.1460  143.7490 H   0  0  0  0  0  0  0  0  0  0  0  0
  201.0410  116.1610  144.0510 N   0  0  0  0  0  0  0  0  0  0  0  0
  202.0930  117.0630  143.8180 C   0  0  0  0  0  0  0  0  0  0  0  0
  201.6150  118.2180  143.2890 C   0  0  0  0  0  0  0  0  0  0  0  0
  199.8900  118.2290  143.1120 S   0  0  0  0  0  0  0  0  0  0  0  0
  199.7780  116.6210  143.7570 C   0  0  0  0  0  0  0  0  0  0  0  0
  198.7340  115.9620  143.9560 O   0  0  0  0  0  0  0  0  0  0  0  0
  203.4760  116.7330  144.1310 C   0  0  0  0  0  0  0  0  0  0  0  0
  204.4190  116.5360  143.1140 C   0  0  0  0  0  0  0  0  0  0  0  0
  205.7370  116.2130  143.4180 C   0  0  0  0  0  0  0  0  0  0  0  0
  206.1340  116.0820  144.7440 C   0  0  0  0  0  0  0  0  0  0  0  0
  205.2090  116.2760  145.7650 C   0  0  0  0  0  0  0  0  0  0  0  0
  203.8920  116.6000  145.4610 C   0  0  0  0  0  0  0  0  0  0  0  0
  201.4120  112.9000  146.0680 C   0  0  0  0  0  0  0  0  0  0  0  0
  202.9210  112.6950  146.0950 C   0  0  0  0  0  0  0  0  0  0  0  0
  203.5800  112.1480  144.9940 C   0  0  0  0  0  0  0  0  0  0  0  0
  204.9610  111.9790  145.0160 C   0  0  0  0  0  0  0  0  0  0  0  0
  205.6950  112.3550  146.1380 C   0  0  0  0  0  0  0  0  0  0  0  0
  207.5730  112.1270  146.1640 Br  0  0  0  0  0  0  0  0  0  0  0  0
  205.0410  112.8990  147.2400 C   0  0  0  0  0  0  0  0  0  0  0  0
  203.6600  113.0660  147.2200 C   0  0  0  0  0  0  0  0  0  0  0  0
  2 17  1  0  0  0  0
  2  1  2  0  0  0  0
  3  2  1  0  0  0  0
  4  3  1  0  0  0  0
  5  3  1  0  0  0  0
  6  5  1  0  0  0  0
  6 11  1  0  0  0  0
  7  6  2  0  0  0  0
  8  7  1  0  0  0  0
  8  9  1  0  0  0  0
  9 10  2  0  0  0  0
  9  5  1  0  0  0  0
 11 16  2  0  0  0  0
 12 13  2  0  0  0  0
 12 11  1  0  0  0  0
 13 14  1  0  0  0  0
 14 15  2  0  0  0  0
 16 15  1  0  0  0  0
 17 18  1  0  0  0  0
 18 24  2  0  0  0  0
 19 20  2  0  0  0  0
 19 18  1  0  0  0  0
 20 21  1  0  0  0  0
 21 22  1  0  0  0  0
 21 23  2  0  0  0  0
 24 23  1  0  0  0  0
M  END
>  <REMARK>
 VINA RESULT:      -6.5      0.000      0.000
  Name = ZINC000000622877
                            x       y       z     vdW  Elec       q    Type
                         _______ _______ _______ _____ _____    ______ ____

>  <Score> 
-6.5

>  <TORSDO>
F 4

$$$$
=
 OpenBabel12272317403D

  9  9  0  0  0  0  0  0  0  0999 V2000
  166.4170  155.8820  150.7670 C   0  0  0  0  0  0  0  0  0  0  0  0
  167.6180  155.5720  150.2510 N   0  0  0  0  0  0  0  0  0  0  0  0
  167.9260  154.3370  149.8320 C   0  0  0  0  0  0  0  0  0  0  0  0
  167.0160  153.3030  149.9060 C   0  0  0  0  0  0  0  0  0  0  0  0
  165.8110  153.6000  150.4200 N   0  0  0  0  0  0  0  0  0  0  0  0
  165.4990  154.8390  150.8420 C   0  0  0  0  0  0  0  0  0  0  0  0
  166.7820  158.2780  150.9250 N   0  0  0  0  0  0  0  0  0  0  0  0
  166.1000  157.2290  151.2170 C   0  0  0  0  0  0  0  0  0  0  0  0
  164.9860  157.4040  152.0180 O   0  0  0  0  0  0  0  0  0  0  0  0
  1  6  1  0  0  0  0
  1  8  1  0  0  0  0
  2  1  2  0  0  0  0
  3  4  2  0  0  0  0
  3  2  1  0  0  0  0
  4  5  1  0  0  0  0
  5  6  2  0  0  0  0
  7  8  1  0  0  0  0
  8  9  2  0  0  0  0
M  END
>  <REMARK>
 VINA RESULT:      -4.5      0.000      0.000
  Name = 
                            x       y       z     vdW  Elec       q    Type
                         _______ _______ _______ _____ _____    ______ ____

>  <Score> 
-4.5

>  <TORSDO>
F 1

$$$$
ZINC000186872603
 OpenBabel12272317403D

 28 31  0  0  0  0  0  0  0  0999 V2000
  169.3210  146.3180  145.8290 N   0  0  0  0  0  0  0  0  0  0  0  0
  169.4910  147.1580  144.6130 C   0  0  0  0  0  0  0  0  0  0  0  0
  170.9650  147.6300  144.5510 C   0  0  0  0  0  0  0  0  0  0  0  0
  171.3220  148.4010  145.7780 N   0  0  0  0  0  0  0  0  0  0  0  0
  171.1520  147.5230  146.9790 C   0  0  0  0  0  0  0  0  0  0  0  0
  169.6970  146.9930  147.0990 C   0  0  0  0  0  0  0  0  0  0  0  0
  167.4270  142.3260  144.0300 C   0  0  0  0  0  0  0  0  0  0  0  0
  167.3700  143.4740  145.0090 C   0  0  0  0  0  0  0  0  0  0  0  0
  168.3360  144.3670  144.9860 N   0  0  0  0  0  0  0  0  0  0  0  0
  168.2940  145.3840  145.8560 C   0  0  0  0  0  0  0  0  0  0  0  0
  167.3140  145.5480  146.7530 N   0  0  0  0  0  0  0  0  0  0  0  0
  166.3310  144.6660  146.8010 C   0  0  0  0  0  0  0  0  0  0  0  0
  166.3340  143.5940  145.9220 C   0  0  0  0  0  0  0  0  0  0  0  0
  165.2080  144.8360  147.8200 C   0  0  0  0  0  0  0  0  0  0  0  0
  165.7850  144.6980  149.2380 C   0  0  0  0  0  0  0  0  0  0  0  0
  164.1280  143.7720  147.5660 C   0  0  0  0  0  0  0  0  0  0  0  0
  170.6190  149.6990  145.8570 C   0  0  0  0  0  0  0  0  0  0  0  0
  171.3660  150.4850  146.9500 C   0  0  0  0  0  0  0  0  0  0  0  0
  171.2180  151.9910  146.6590 C   0  0  0  0  0  0  0  0  0  0  0  0
  170.0160  152.5140  147.4160 C   0  0  0  0  0  0  0  0  0  0  0  0
  170.1630  152.8770  148.7190 O   0  0  0  0  0  0  0  0  0  0  0  0
  168.9520  153.2950  149.0960 C   0  0  0  0  0  0  0  0  0  0  0  0
  168.5280  153.7810  150.3310 C   0  0  0  0  0  0  0  0  0  0  0  0
  167.1920  154.1530  150.4530 C   0  0  0  0  0  0  0  0  0  0  0  0
  166.3160  154.0320  149.3550 C   0  0  0  0  0  0  0  0  0  0  0  0
  166.7720  153.5410  148.1330 C   0  0  0  0  0  0  0  0  0  0  0  0
  168.1140  153.1710  148.0140 C   0  0  0  0  0  0  0  0  0  0  0  0
  168.8310  152.6690  146.9540 N   0  0  0  0  0  0  0  0  0  0  0  0
  1 10  1  0  0  0  0
  1  6  1  0  0  0  0
  2  1  1  0  0  0  0
  3  2  1  0  0  0  0
  3  4  1  0  0  0  0
  4 17  1  0  0  0  0
  4  5  1  0  0  0  0
  5  6  1  0  0  0  0
  7  8  1  0  0  0  0
  8 13  1  0  0  0  0
  9  8  2  0  0  0  0
  9 10  1  0  0  0  0
 10 11  2  0  0  0  0
 11 12  1  0  0  0  0
 12 14  1  0  0  0  0
 13 12  2  0  0  0  0
 14 15  1  0  0  0  0
 16 14  1  0  0  0  0
 17 18  1  0  0  0  0
 19 18  1  0  0  0  0
 19 20  1  0  0  0  0
 20 21  1  0  0  0  0
 21 22  1  0  0  0  0
 22 23  2  0  0  0  0
 23 24  1  0  0  0  0
 25 24  2  0  0  0  0
 26 25  1  0  0  0  0
 27 26  2  0  0  0  0
 27 22  1  0  0  0  0
 28 20  2  0  0  0  0
 28 27  1  0  0  0  0
M  END
>  <REMARK>
 VINA RESULT:      -7.8      0.000      0.000
  Name = ZINC000186872603
                            x       y       z     vdW  Elec       q    Type
                         _______ _______ _______ _____ _____    ______ ____

>  <Score> 
-7.8

>  <TORSDO>
F 6

$$$$
ZINC000009075134
 OpenBabel12272317403D

 23 25  0  0  0  0  0  0  0  0999 V2000
  170.4040  151.5640  147.3410 C   0  0  0  0  0  0  0  0  0  0  0  0
  170.1390  152.5850  148.2710 C   0  0  0  0  0  0  0  0  0  0  0  0
  168.8660  153.1260  148.3750 C   0  0  0  0  0  0  0  0  0  0  0  0
  168.6590  154.1910  149.2890 N   0  0  0  0  0  0  0  0  0  0  0  0
  169.4570  154.7490  149.6200 H   0  0  0  0  0  0  0  0  0  0  0  0
  167.4480  154.6300  149.7170 C   0  0  0  0  0  0  0  0  0  0  0  0
  166.1820  153.8390  149.4450 C   0  0  0  0  0  0  0  0  0  0  0  0
  166.2020  153.3250  147.6870 S   0  0  0  0  0  0  0  0  0  0  0  0
  167.4520  155.6590  150.3570 O   0  0  0  0  0  0  0  0  0  0  0  0
  167.8110  152.6640  147.5620 C   0  0  0  0  0  0  0  0  0  0  0  0
  168.0760  151.6600  146.6270 C   0  0  0  0  0  0  0  0  0  0  0  0
  169.3510  151.1150  146.5210 C   0  0  0  0  0  0  0  0  0  0  0  0
  172.6170  151.4250  146.5020 O   0  0  0  0  0  0  0  0  0  0  0  0
  171.7430  150.9920  147.2400 C   0  0  0  0  0  0  0  0  0  0  0  0
  172.0350  149.9090  147.9990 O   0  0  0  0  0  0  0  0  0  0  0  0
  171.0440  148.9070  148.3520 C   0  0  0  0  0  0  0  0  0  0  0  0
  171.1010  147.8890  147.2280 C   0  0  0  0  0  0  0  0  0  0  0  0
  169.9530  147.5840  146.4970 C   0  0  0  0  0  0  0  0  0  0  0  0
  170.0050  146.6520  145.4640 C   0  0  0  0  0  0  0  0  0  0  0  0
  171.2070  146.0200  145.1530 C   0  0  0  0  0  0  0  0  0  0  0  0
  171.2770  144.7510  143.7500 Br  0  0  0  0  0  0  0  0  0  0  0  0
  172.3560  146.3260  145.8760 C   0  0  0  0  0  0  0  0  0  0  0  0
  172.3040  147.2590  146.9080 C   0  0  0  0  0  0  0  0  0  0  0  0
  1  2  2  0  0  0  0
  2  3  1  0  0  0  0
  3  4  1  0  0  0  0
  4  5  1  0  0  0  0
  4  6  1  0  0  0  0
  6  9  2  0  0  0  0
  7  6  1  0  0  0  0
  8  7  1  0  0  0  0
 10  8  1  0  0  0  0
 10  3  2  0  0  0  0
 11 10  1  0  0  0  0
 12 11  2  0  0  0  0
 12  1  1  0  0  0  0
 13 14  2  0  0  0  0
 14  1  1  0  0  0  0
 14 15  1  0  0  0  0
 15 16  1  0  0  0  0
 17 16  1  0  0  0  0
 18 17  2  0  0  0  0
 19 18  1  0  0  0  0
 20 19  2  0  0  0  0
 20 22  1  0  0  0  0
 21 20  1  0  0  0  0
 22 23  2  0  0  0  0
 23 17  1  0  0  0  0
M  END
>  <REMARK>
 VINA RESULT:      -7.7      0.000      0.000
  Name = ZINC000009075134
                            x       y       z     vdW  Elec       q    Type
                         _______ _______ _______ _____ _____    ______ ____

>  <Score> 
-7.7

>  <TORSDO>
F 4

$$$$
ZINC000022625070
 OpenBabel12272317403D

 29 31  0  0  1  0  0  0  0  0999 V2000
  200.7930  113.1520  145.3910 C   0  0  0  0  0  0  0  0  0  0  0  0
  202.1120  113.6070  145.3710 C   0  0  0  0  0  0  0  0  0  0  0  0
  202.8830  114.5210  144.4340 C   0  0  0  0  0  0  0  0  0  0  0  0
  203.9870  115.2410  145.2570 C   0  0  0  0  0  0  0  0  0  0  0  0
  204.7780  114.2550  146.1310 C   0  0  0  0  0  0  0  0  0  0  0  0
  204.1160  113.1750  146.7390 C   0  0  0  0  0  0  0  0  0  0  0  0
  204.8070  112.3260  147.6060 C   0  0  0  0  0  0  0  0  0  0  0  0
  206.1630  112.5500  147.8440 C   0  0  0  0  0  0  0  0  0  0  0  0
  206.8300  113.6070  147.2320 C   0  0  0  0  0  0  0  0  0  0  0  0
  206.1340  114.4610  146.3800 C   0  0  0  0  0  0  0  0  0  0  0  0
  202.7270  112.9950  146.3910 C   0  0  0  0  0  0  0  0  0  0  0  0
  201.8290  112.2090  146.9980 O   0  0  0  0  0  0  0  0  0  0  0  0
  200.6520  112.3070  146.3880 N   0  0  0  0  0  0  0  0  0  0  0  0
  199.2520  112.5620  143.6050 N   0  0  0  0  0  0  0  0  0  0  0  0
  199.7430  111.6600  143.6310 H   0  0  0  0  0  0  0  0  0  0  0  0
  199.7190  113.5210  144.4620 C   0  0  0  0  0  0  0  0  0  0  0  0
  199.2140  114.6410  144.3950 O   0  0  0  0  0  0  0  0  0  0  0  0
  198.3620  112.8330  142.4930 C   0  0  2  0  0  0  0  0  0  0  0  0
  197.3980  111.6500  142.4180 C   0  0  0  0  0  0  0  0  0  0  0  0
  199.2200  113.0090  141.2260 C   0  0  0  0  0  0  0  0  0  0  0  0
  199.2350  114.4260  140.6120 C   0  0  0  0  0  0  0  0  0  0  0  0
  198.0770  114.4720  139.5860 C   0  0  0  0  0  0  0  0  0  0  0  0
  196.9970  115.3690  140.0760 N   0  0  0  0  0  0  0  0  0  0  0  0
  195.8100  113.3850  139.5280 C   0  0  0  0  0  0  0  0  0  0  0  0
  195.7360  114.6560  140.3780 C   0  0  0  0  0  0  0  0  0  0  0  0
  197.4320  116.2770  141.1550 C   0  0  0  0  0  0  0  0  0  0  0  0
  196.2060  116.4430  142.0610 C   0  0  0  0  0  0  0  0  0  0  0  0
  206.8990  111.7450  148.6830 O   0  0  0  0  0  0  0  0  0  0  0  0
  207.6710  110.5960  148.2660 C   0  0  0  0  0  0  0  0  0  0  0  0
  1 13  2  0  0  0  0
  2  1  1  0  0  0  0
  2 11  2  0  0  0  0
  3  4  1  0  0  0  0
  3  2  1  0  0  0  0
  4  5  1  0  0  0  0
  5 10  2  0  0  0  0
  5  6  1  0  0  0  0
  6  7  2  0  0  0  0
  7  8  1  0  0  0  0
  8 28  1  0  0  0  0
  9  8  2  0  0  0  0
 10  9  1  0  0  0  0
 11  6  1  0  0  0  0
 11 12  1  0  0  0  0
 13 12  1  0  0  0  0
 14 15  1  0  0  0  0
 14 16  1  0  0  0  0
 16  1  1  0  0  0  0
 17 16  2  0  0  0  0
 18 20  1  6  0  0  0
 18 14  1  0  0  0  0
 19 18  1  0  0  0  0
 21 20  1  0  0  0  0
 22 23  1  0  0  0  0
 22 21  1  0  0  0  0
 23 25  1  0  0  0  0
 23 26  1  0  0  0  0
 24 25  1  0  0  0  0
 26 27  1  0  0  0  0
 29 28  1  0  0  0  0
M  END
>  <REMARK>
 VINA RESULT:      -6.7      0.000      0.000
  Name = ZINC000022625070
                            x       y       z     vdW  Elec       q    Type
                         _______ _______ _______ _____ _____    ______ ____

>  <Score> 
-6.7

>  <TORSDO>
F 9

$$$$
ZINC000049409419
 OpenBabel12272317403D

 27 29  0  0  0  0  0  0  0  0999 V2000
  170.5490  149.1760  147.7630 N   0  0  0  0  0  0  0  0  0  0  0  0
  169.5410  149.2340  147.9830 H   0  0  0  0  0  0  0  0  0  0  0  0
  171.3700  149.9870  148.5060 C   0  0  0  0  0  0  0  0  0  0  0  0
  172.5760  149.8790  148.4500 O   0  0  0  0  0  0  0  0  0  0  0  0
  171.4540  146.3330  144.7960 C   0  0  0  0  0  0  0  0  0  0  0  0
  171.5850  145.9600  146.1460 C   0  0  0  0  0  0  0  0  0  0  0  0
  172.1100  144.3680  146.5850 Cl  0  0  0  0  0  0  0  0  0  0  0  0
  171.2940  146.8800  147.1540 C   0  0  0  0  0  0  0  0  0  0  0  0
  170.8690  148.1660  146.8090 C   0  0  0  0  0  0  0  0  0  0  0  0
  170.7520  148.5350  145.4590 C   0  0  0  0  0  0  0  0  0  0  0  0
  171.0400  147.6200  144.4480 C   0  0  0  0  0  0  0  0  0  0  0  0
  170.8390  144.4080  143.2770 C   0  0  0  0  0  0  0  0  0  0  0  0
  171.7520  145.3890  143.8180 O   0  0  0  0  0  0  0  0  0  0  0  0
  170.3490  149.8410  145.1670 O   0  0  0  0  0  0  0  0  0  0  0  0
  169.0390  150.2240  144.6880 C   0  0  0  0  0  0  0  0  0  0  0  0
  170.7110  150.9970  149.4090 C   0  0  0  0  0  0  0  0  0  0  0  0
  169.7280  151.7150  148.5270 C   0  0  0  0  0  0  0  0  0  0  0  0
  168.4540  151.4530  148.5940 O   0  0  0  0  0  0  0  0  0  0  0  0
  167.8830  152.2290  147.6970 C   0  0  0  0  0  0  0  0  0  0  0  0
  168.7800  152.9460  147.0950 N   0  0  0  0  0  0  0  0  0  0  0  0
  169.9830  152.6030  147.6430 N   0  0  0  0  0  0  0  0  0  0  0  0
  166.4410  152.1960  147.5050 C   0  0  0  0  0  0  0  0  0  0  0  0
  165.4330  152.5120  148.4000 C   0  0  0  0  0  0  0  0  0  0  0  0
  165.6640  152.9790  149.8220 C   0  0  0  0  0  0  0  0  0  0  0  0
  164.1500  152.3560  147.8540 C   0  0  0  0  0  0  0  0  0  0  0  0
  164.1650  151.9270  146.5580 C   0  0  0  0  0  0  0  0  0  0  0  0
  165.7710  151.7040  145.9790 S   0  0  0  0  0  0  0  0  0  0  0  0
  1  2  1  0  0  0  0
  1  3  1  0  0  0  0
  3 16  1  0  0  0  0
  4  3  2  0  0  0  0
  5  6  1  0  0  0  0
  6  7  1  0  0  0  0
  6  8  2  0  0  0  0
  9  8  1  0  0  0  0
  9  1  1  0  0  0  0
 10  9  2  0  0  0  0
 11  5  2  0  0  0  0
 11 10  1  0  0  0  0
 12 13  1  0  0  0  0
 13  5  1  0  0  0  0
 14 10  1  0  0  0  0
 15 14  1  0  0  0  0
 17 18  1  0  0  0  0
 17 16  1  0  0  0  0
 19 18  1  0  0  0  0
 20 21  1  0  0  0  0
 20 19  2  0  0  0  0
 21 17  2  0  0  0  0
 22 19  1  0  0  0  0
 22 23  2  0  0  0  0
 23 24  1  0  0  0  0
 25 23  1  0  0  0  0
 26 25  2  0  0  0  0
 27 26  1  0  0  0  0
 27 22  1  0  0  0  0
M  END
>  <REMARK>
 VINA RESULT:      -7.7      0.000      0.000
  Name = ZINC000049409419
                            x       y       z     vdW  Elec       q    Type
                         _______ _______ _______ _____ _____    ______ ____

>  <Score> 
-7.7

>  <TORSDO>
F 6

$$$$
