REMARK VINA RESULT:      -7.9     46.299     52.667
REMARK  Name = 
REMARK                            x       y       z     vdW  Elec       q    Type
REMARK                         _______ _______ _______ _____ _____    ______ ____
ROOT
ATOM      1  C   LIG    1      195.332  99.519 154.938  0.00  0.00    +0.072 C 
ATOM      2  C   LIG    1      196.699  98.756 155.232  0.00  0.00    +0.070 C 
ATOM      3  N   LIG    1      196.071  97.361 155.483  0.00  0.00    -0.269 NA
ATOM      4  C   LIG    1      195.954  97.080 156.802  0.00  0.00    +0.073 C 
ATOM      5  C   LIG    1      195.849  98.429 157.531  0.00  0.00    +0.024 C 
ATOM      6  C   LIG    1      194.877  97.157 154.778  0.00  0.00    +0.099 C 
ATOM      7  C   LIG    1      193.828  97.927 155.564  0.00  0.00    -0.013 C 
ATOM      8  C   LIG    1      196.864  99.030 156.826  0.00  0.00    +0.055 C 
ATOM      9  C   LIG    1      197.198 100.555 157.067  0.00  0.00    +0.127 C 
ATOM     10  C   LIG    1      195.908 101.260 156.473  0.00  0.00    +0.268 C 
ATOM     11  O   LIG    1      194.804 100.857 157.118  0.00  0.00    -0.209 OA
ATOM     12  N   LIG    1      198.249 100.639 156.017  0.00  0.00    -0.250 N 
ATOM     13  C   LIG    1      198.418 101.506 155.004  0.00  0.00    +0.307 C 
ATOM     14  O   LIG    1      199.344 101.518 154.174  0.00  0.00    -0.265 OA
ATOM     15  C   LIG    1      199.059  99.514 156.419  0.00  0.00    +0.053 A 
ATOM     16  C   LIG    1      200.425  99.413 156.324  0.00  0.00    +0.051 A 
ATOM     17  C   LIG    1      201.014  98.241 156.804  0.00  0.00    +0.137 A 
ATOM     18  C   LIG    1      200.272  97.234 157.344  0.00  0.00    +0.026 A 
ATOM     19  C   LIG    1      198.900  97.405 157.408  0.00  0.00    -0.003 A 
ATOM     20  C   LIG    1      198.256  98.536 156.951  0.00  0.00    -0.006 A 
ATOM     21  C   LIG    1      195.843 101.081 154.894  0.00  0.00    +0.213 C 
ATOM     22  C   LIG    1      194.192  99.206 155.579  0.00  0.00    -0.025 C 
ENDROOT
BRANCH  18  23
ATOM     23  C   LIG    1      200.968  96.005 157.791  0.00  0.00    +0.146 C 
ATOM     24  C   LIG    1      201.541  96.139 159.157  0.00  0.00    +0.068 A 
ATOM     25  C   LIG    1      202.195  95.136 159.805  0.00  0.00    -0.005 A 
ATOM     26  C   LIG    1      202.587  95.647 161.060  0.00  0.00    +0.015 A 
ATOM     27  C   LIG    1      202.154  96.958 161.135  0.00  0.00    +0.081 A 
ATOM     28  C   LIG    1      202.423  97.684 162.293  0.00  0.00    +0.019 A 
ATOM     29  C   LIG    1      203.105  97.142 163.361  0.00  0.00    +0.002 A 
ATOM     30  C   LIG    1      203.536  95.844 163.290  0.00  0.00    +0.000 A 
ATOM     31  C   LIG    1      203.265  95.136 162.147  0.00  0.00    +0.001 A 
ATOM     32  C   LIG    1      202.480  93.769 159.369  0.00  0.00    +0.045 C 
ATOM     33  C   LIG    1      203.880  93.348 159.241  0.00  0.00    +0.077 C 
ATOM     34  N   LIG    1      204.566  93.690 158.039  0.00  0.00    -0.270 NA
ATOM     35  C   LIG    1      204.439  92.746 156.949  0.00  0.00    +0.103 C 
ATOM     36  C   LIG    1      204.466  93.374 155.586  0.00  0.00    +0.141 C 
ATOM     37  C   LIG    1      203.356  94.413 155.368  0.00  0.00    +0.033 C 
ATOM     38  C   LIG    1      202.687  94.404 156.838  0.00  0.00    +0.020 C 
ATOM     39  O   LIG    1      204.201  92.328 154.671  0.00  0.00    -0.224 OA
ATOM     40  C   LIG    1      204.078  94.937 157.553  0.00  0.00    +0.072 C 
ATOM     41  N   LIG    1      201.540  97.214 159.994  0.00  0.00    -0.249 NA
ATOM     42  C   LIG    1      202.079  95.879 156.784  0.00  0.00    +0.022 C 
BRANCH  36  43
ATOM     43  C   LIG    1      205.773  93.998 155.236  0.00  0.00    +0.032 C 
ATOM     44  C   LIG    1      206.878  92.987 155.398  0.00  0.00    +0.003 C 
ENDBRANCH  36  43
BRANCH  23  45
ATOM     45  C   LIG    1      200.000  94.919 157.854  0.00  0.00    +0.325 C 
ATOM     46  O   LIG    1      199.328  94.837 158.956  0.00  0.00    -0.249 OA
BRANCH  45  47
ATOM     47  O   LIG    1      199.663  93.953 156.955  0.00  0.00    -0.444 OA
ATOM     48  C   LIG    1      198.328  93.660 156.592  0.00  0.00    +0.256 C 
ENDBRANCH  45  47
ENDBRANCH  23  45
ENDBRANCH  18  23
BRANCH   1  50
ATOM     49  C   LIG    1      196.075  99.546 152.797  0.00  0.00    +0.001 C 
ATOM     50  C   LIG    1      195.209  99.270 153.413  0.00  0.00    +0.009 C 
ENDBRANCH   1  50
BRANCH  10  51
ATOM     51  C   LIG    1      196.107 102.657 156.893  0.00  0.00    +0.350 C 
ATOM     52  O   LIG    1      196.457 103.620 156.172  0.00  0.00    -0.247 OA
BRANCH  51  53
ATOM     53  O   LIG    1      195.906 103.044 158.231  0.00  0.00    -0.443 OA
ATOM     54  C   LIG    1      195.065 104.100 158.605  0.00  0.00    +0.256 C 
ENDBRANCH  51  53
ENDBRANCH  10  51
BRANCH  17  55
ATOM     55  O   LIG    1      202.427  98.184 156.691  0.00  0.00    -0.472 OA
ATOM     56  C   LIG    1      203.162  99.201 156.061  0.00  0.00    +0.252 C 
ENDBRANCH  17  55
BRANCH  21  57
ATOM     57  O   LIG    1      194.425 101.590 154.714  0.00  0.00    -0.449 OA
BRANCH  57  58
ATOM     58  C   LIG    1      194.289 102.523 153.732  0.00  0.00    +0.318 C 
ATOM     59  O   LIG    1      195.121 103.051 152.987  0.00  0.00    -0.250 OA
ATOM     60  C   LIG    1      192.875 103.024 153.484  0.00  0.00    +0.121 C 
ENDBRANCH  57  58
ENDBRANCH  21  57
TORSDOF 10
