REMARK VINA RESULT:      -6.6      2.252      2.470
REMARK  Name = ZINC000006087320
REMARK                            x       y       z     vdW  Elec       q    Type
REMARK                         _______ _______ _______ _____ _____    ______ ____
ROOT
ATOM      1  C   LIG    1      164.448 161.298 155.314  0.00  0.00    +0.222 C 
ENDROOT
BRANCH   1   2
ATOM      2  N   LIG    1      163.622 161.430 156.539  0.00  0.00    -0.290 N 
ATOM      3  C   LIG    1      162.467 160.685 156.694  0.00  0.00    +0.262 A 
ATOM      4  O   LIG    1      162.151 159.927 155.772  0.00  0.00    -0.267 OA
ATOM      5  C   LIG    1      161.702 160.855 157.910  0.00  0.00    +0.068 A 
ATOM      6  C   LIG    1      160.534 160.119 158.161  0.00  0.00    +0.035 A 
ATOM      7  C   LIG    1      159.828 160.318 159.342  0.00  0.00    +0.043 A 
ATOM      8 CL   LIG    1      158.388 159.411 159.647  0.00  0.00    -0.083 Cl
ATOM      9  C   LIG    1      160.273 161.249 160.284  0.00  0.00    +0.042 A 
ATOM     10  C   LIG    1      161.429 161.981 160.039  0.00  0.00    +0.068 A 
ATOM     11 CL   LIG    1      161.953 163.130 161.232  0.00  0.00    -0.081 Cl
ATOM     12  C   LIG    1      162.159 161.793 158.845  0.00  0.00    +0.096 A 
ATOM     13  N   LIG    1      163.329 162.528 158.572  0.00  0.00    -0.235 NA
ATOM     14  C   LIG    1      163.998 162.357 157.496  0.00  0.00    +0.203 A 
ENDBRANCH   1   2
BRANCH   1  17
ATOM     15  N   LIG    1      163.022 162.837 154.021  0.00  0.00    -0.284 N 
ATOM     16  H   LIG    1      163.314 163.483 154.776  0.00  0.00    +0.155 HD
ATOM     17  C   LIG    1      163.546 161.571 154.121  0.00  0.00    +0.237 C 
ATOM     18  O   LIG    1      163.321 160.715 153.292  0.00  0.00    -0.274 OA
BRANCH  15  20
ATOM     19  C   LIG    1      160.892 163.875 153.527  0.00  0.00    -0.026 A 
ATOM     20  C   LIG    1      162.124 163.378 153.064  0.00  0.00    +0.037 A 
ATOM     21  C   LIG    1      162.453 163.442 151.706  0.00  0.00    +0.023 A 
ATOM     22  C   LIG    1      161.545 163.979 150.801  0.00  0.00    +0.002 A 
ATOM     23  C   LIG    1      160.317 164.458 151.247  0.00  0.00    +0.000 A 
ATOM     24  C   LIG    1      159.996 164.406 152.601  0.00  0.00    +0.005 A 
BRANCH  19  26
ATOM     25  C   LIG    1      158.991 163.512 155.035  0.00  0.00    +0.009 C 
ATOM     26  C   LIG    1      160.489 163.846 154.997  0.00  0.00    +0.033 C 
ENDBRANCH  19  26
ENDBRANCH  15  20
ENDBRANCH   1  17
TORSDOF 4
