REMARK VINA RESULT:      -6.5     26.374     29.410
REMARK  Name = ZINC000193545175
REMARK                            x       y       z     vdW  Elec       q    Type
REMARK                         _______ _______ _______ _____ _____    ______ ____
ROOT
ATOM      1  C   LIG    1      145.602 167.263 148.231  0.00  0.00    +0.171 A 
ATOM      2  N   LIG    1      145.850 166.531 149.361  0.00  0.00    -0.204 NA
ATOM      3  C   LIG    1      146.260 165.364 149.006  0.00  0.00    +0.185 A 
ATOM      4  S   LIG    1      146.353 165.134 147.310  0.00  0.00    +0.050 S 
ATOM      5  N   LIG    1      145.818 166.672 147.083  0.00  0.00    -0.187 NA
ENDROOT
BRANCH   1   8
ATOM      6  C   LIG    1      145.514 171.039 148.160  0.00  0.00    +0.121 A 
ATOM      7  C   LIG    1      145.986 169.730 148.090  0.00  0.00    +0.057 A 
ATOM      8  C   LIG    1      145.116 168.648 148.304  0.00  0.00    +0.023 A 
ATOM      9  C   LIG    1      143.767 168.934 148.588  0.00  0.00    +0.012 A 
ATOM     10  C   LIG    1      143.305 170.245 148.656  0.00  0.00    +0.004 A 
ATOM     11  C   LIG    1      144.179 171.304 148.442  0.00  0.00    +0.045 A 
BRANCH   6  13
ATOM     12  C   LIG    1      145.901 173.429 147.518  0.00  0.00    +0.277 C 
ATOM     13  O   LIG    1      146.339 172.123 147.957  0.00  0.00    -0.495 OA
ENDBRANCH   6  13
ENDBRANCH   1   8
BRANCH   3  14
ATOM     14  N   LIG    1      146.578 164.437 149.999  0.00  0.00    -0.259 N 
ATOM     15  H   LIG    1      147.531 164.514 150.363  0.00  0.00    +0.157 HD
ATOM     16  C   LIG    1      145.783 163.466 150.547  0.00  0.00    +0.254 C 
ATOM     17  O   LIG    1      144.634 163.370 150.144  0.00  0.00    -0.270 OA
BRANCH  16  18
ATOM     18  C   LIG    1      146.319 162.598 151.586  0.00  0.00    +0.089 A 
ATOM     19  C   LIG    1      147.238 161.586 151.503  0.00  0.00    +0.182 A 
ATOM     20 BR   LIG    1      148.218 160.837 150.071  0.00  0.00    -0.008 Br
ATOM     21  O   LIG    1      147.439 161.051 152.726  0.00  0.00    -0.456 OA
ATOM     22  C   LIG    1      146.648 161.714 153.602  0.00  0.00    +0.197 A 
ATOM     23  C   LIG    1      145.951 162.663 152.943  0.00  0.00    +0.055 A 
ENDBRANCH  16  18
ENDBRANCH   3  14
TORSDOF 4
