REMARK VINA RESULT:      -8.8     32.249     35.577
REMARK  Name = 
REMARK                            x       y       z     vdW  Elec       q    Type
REMARK                         _______ _______ _______ _____ _____    ______ ____
ROOT
ATOM      1  C   LIG    1      200.162 115.566 140.697  0.00  0.00    +0.243 C 
ATOM      2  C   LIG    1      199.605 116.997 140.247  0.00  0.00    +0.196 C 
ATOM      3  O   LIG    1      200.226 116.993 139.255  0.00  0.00    -0.292 OA
ATOM      4  C   LIG    1      198.815 118.098 140.480  0.00  0.00    +0.090 C 
ATOM      5  C   LIG    1      198.006 118.313 141.766  0.00  0.00    +0.093 C 
ATOM      6  C   LIG    1      197.079 119.530 141.323  0.00  0.00    +0.191 C 
ATOM      7  C   LIG    1      197.976 120.721 141.859  0.00  0.00    +0.157 C 
ATOM      8  C   LIG    1      199.108 120.562 140.630  0.00  0.00    +0.067 C 
ATOM      9  O   LIG    1      197.167 121.635 141.004  0.00  0.00    -0.349 OA
ATOM     10  C   LIG    1      197.269 120.450 140.234  0.00  0.00    +0.185 C 
ATOM     11  C   LIG    1      198.627 118.797 143.088  0.00  0.00    +0.201 C 
ATOM     12  C   LIG    1      199.687 117.773 143.668  0.00  0.00    +0.170 C 
ATOM     13  C   LIG    1      199.206 116.407 143.262  0.00  0.00    +0.048 C 
ATOM     14  C   LIG    1      199.569 115.333 144.367  0.00  0.00    +0.007 C 
ATOM     15  C   LIG    1      197.773 116.189 143.075  0.00  0.00    +0.007 C 
ATOM     16  O   LIG    1      199.478 117.579 145.027  0.00  0.00    -0.222 OA
ATOM     17  C   LIG    1      201.105 118.076 143.524  0.00  0.00    +0.082 C 
ATOM     18  C   LIG    1      201.527 116.529 143.992  0.00  0.00    +0.189 C 
ATOM     19  C   LIG    1      201.405 116.017 142.447  0.00  0.00    -0.009 C 
ATOM     20  C   LIG    1      202.481 115.709 141.599  0.00  0.00    +0.029 C 
ATOM     21  C   LIG    1      198.340 118.481 139.190  0.00  0.00    +0.010 C 
ATOM     22  C   LIG    1      199.870 119.216 141.047  0.00  0.00    +0.161 C 
ATOM     23  O   LIG    1      200.783 119.281 139.854  0.00  0.00    -0.223 OA
ATOM     24  C   LIG    1      200.116 116.023 142.241  0.00  0.00    -0.000 C 
ENDROOT
BRANCH   1  25
ATOM     25  O   LIG    1      198.806 114.859 140.740  0.00  0.00    -0.440 OA
BRANCH  25  27
ATOM     26  C   LIG    1      198.178 112.686 141.802  0.00  0.00    +0.121 C 
ATOM     27  C   LIG    1      198.982 113.493 140.884  0.00  0.00    +0.318 C 
ATOM     28  O   LIG    1      199.843 112.840 140.242  0.00  0.00    -0.250 OA
ENDBRANCH  25  27
ENDBRANCH   1  25
BRANCH   6  29
ATOM     29  O   LIG    1      195.810 119.354 141.409  0.00  0.00    -0.451 OA
BRANCH  29  30
ATOM     30  C   LIG    1      194.881 118.557 140.898  0.00  0.00    +0.317 C 
ATOM     31  O   LIG    1      195.122 117.361 140.636  0.00  0.00    -0.250 OA
ATOM     32  C   LIG    1      193.460 118.925 140.561  0.00  0.00    +0.121 C 
ENDBRANCH  29  30
ENDBRANCH   6  29
BRANCH  11  33
ATOM     33  O   LIG    1      197.608 118.766 144.019  0.00  0.00    -0.446 OA
BRANCH  33  34
ATOM     34  C   LIG    1      196.709 118.742 144.842  0.00  0.00    +0.341 C 
ATOM     35  O   LIG    1      195.848 118.067 144.222  0.00  0.00    -0.245 OA
BRANCH  34  36
ATOM     36  C   LIG    1      196.239 119.135 146.152  0.00  0.00    +0.076 A 
ATOM     37  C   LIG    1      196.719 118.470 147.305  0.00  0.00    +0.006 A 
ATOM     38  C   LIG    1      196.300 118.820 148.559  0.00  0.00    +0.000 A 
ATOM     39  C   LIG    1      195.397 119.833 148.768  0.00  0.00    +0.000 A 
ATOM     40  C   LIG    1      194.894 120.519 147.656  0.00  0.00    +0.000 A 
ATOM     41  C   LIG    1      195.356 120.116 146.423  0.00  0.00    +0.006 A 
ENDBRANCH  34  36
ENDBRANCH  33  34
ENDBRANCH  11  33
BRANCH  18  42
ATOM     42  O   LIG    1      203.037 116.669 144.000  0.00  0.00    -0.446 OA
BRANCH  42  43
ATOM     43  C   LIG    1      203.496 116.414 145.208  0.00  0.00    +0.350 C 
ATOM     44  O   LIG    1      202.842 116.688 146.237  0.00  0.00    -0.247 OA
BRANCH  43  45
ATOM     45  C   LIG    1      204.924 115.730 145.527  0.00  0.00    +0.273 C 
ATOM     46  O   LIG    1      205.727 116.519 144.546  0.00  0.00    -0.209 OA
BRANCH  45  47
ATOM     47  C   LIG    1      204.592 114.453 144.426  0.00  0.00    +0.159 C 
BRANCH  47  48
ATOM     48  C   LIG    1      203.680 113.574 145.331  0.00  0.00    +0.000 A 
ATOM     49  C   LIG    1      202.552 113.147 144.685  0.00  0.00    -0.003 A 
ATOM     50  C   LIG    1      201.610 112.357 145.310  0.00  0.00    -0.000 A 
ATOM     51  C   LIG    1      201.850 112.012 146.614  0.00  0.00    -0.000 A 
ATOM     52  C   LIG    1      202.971 112.431 147.270  0.00  0.00    -0.000 A 
ATOM     53  C   LIG    1      203.875 113.224 146.581  0.00  0.00    -0.003 A 
ENDBRANCH  47  48
BRANCH  47  54
ATOM     54  N   LIG    1      205.954 113.782 144.661  0.00  0.00    -0.196 NA
ATOM     55  C   LIG    1      206.776 113.337 143.698  0.00  0.00    +0.265 C 
ATOM     56  O   LIG    1      206.453 113.455 142.496  0.00  0.00    -0.268 OA
BRANCH  55  57
ATOM     57  C   LIG    1      208.048 112.716 144.038  0.00  0.00    +0.055 A 
ATOM     58  C   LIG    1      208.471 112.602 145.346  0.00  0.00    +0.005 A 
ATOM     59  C   LIG    1      209.681 112.006 145.596  0.00  0.00    +0.000 A 
ATOM     60  C   LIG    1      210.494 111.516 144.593  0.00  0.00    +0.000 A 
ATOM     61  C   LIG    1      210.056 111.637 143.287  0.00  0.00    +0.000 A 
ATOM     62  C   LIG    1      208.846 112.232 143.044  0.00  0.00    +0.005 A 
ENDBRANCH  55  57
ENDBRANCH  47  54
ENDBRANCH  45  47
ENDBRANCH  43  45
ENDBRANCH  42  43
ENDBRANCH  18  42
TORSDOF 14
