REMARK VINA RESULT:      -6.5      0.000      0.000
REMARK  Name = ZINC000000622877
REMARK                            x       y       z     vdW  Elec       q    Type
REMARK                         _______ _______ _______ _____ _____    ______ ____
ROOT
ATOM      1  O   LIG    1      200.822 115.161 146.608  0.00  0.00    -0.274 OA
ATOM      2  C   LIG    1      201.140 114.357 145.746  0.00  0.00    +0.235 C 
ATOM      3  N   LIG    1      201.269 114.760 144.453  0.00  0.00    -0.219 N 
ATOM      4  H   LIG    1      201.711 114.146 143.749  0.00  0.00    +0.176 HD
ENDROOT
BRANCH   3   5
ATOM      5  N   LIG    1      201.041 116.161 144.051  0.00  0.00    -0.217 N 
ATOM      6  C   LIG    1      202.093 117.063 143.818  0.00  0.00    +0.079 A 
ATOM      7  C   LIG    1      201.615 118.218 143.289  0.00  0.00    +0.078 A 
ATOM      8  S   LIG    1      199.890 118.229 143.112  0.00  0.00    -0.033 S 
ATOM      9  C   LIG    1      199.778 116.621 143.757  0.00  0.00    +0.308 A 
ATOM     10  O   LIG    1      198.734 115.962 143.956  0.00  0.00    -0.258 OA
BRANCH   6  11
ATOM     11  C   LIG    1      203.476 116.733 144.131  0.00  0.00    +0.001 A 
ATOM     12  C   LIG    1      204.419 116.536 143.114  0.00  0.00    +0.010 A 
ATOM     13  C   LIG    1      205.737 116.213 143.418  0.00  0.00    +0.001 A 
ATOM     14  C   LIG    1      206.134 116.082 144.744  0.00  0.00    +0.000 A 
ATOM     15  C   LIG    1      205.209 116.276 145.765  0.00  0.00    +0.001 A 
ATOM     16  C   LIG    1      203.892 116.600 145.461  0.00  0.00    +0.010 A 
ENDBRANCH   6  11
ENDBRANCH   3   5
BRANCH   2  17
ATOM     17  C   LIG    1      201.412 112.900 146.068  0.00  0.00    +0.132 C 
BRANCH  17  18
ATOM     18  C   LIG    1      202.921 112.695 146.095  0.00  0.00    -0.039 A 
ATOM     19  C   LIG    1      203.580 112.148 144.994  0.00  0.00    +0.005 A 
ATOM     20  C   LIG    1      204.961 111.979 145.016  0.00  0.00    +0.015 A 
ATOM     21  C   LIG    1      205.695 112.355 146.138  0.00  0.00    +0.018 A 
ATOM     22 BR   LIG    1      207.573 112.127 146.164  0.00  0.00    -0.050 Br
ATOM     23  C   LIG    1      205.041 112.899 147.240  0.00  0.00    +0.015 A 
ATOM     24  C   LIG    1      203.660 113.066 147.220  0.00  0.00    +0.005 A 
ENDBRANCH  17  18
ENDBRANCH   2  17
TORSDOF 4
