MODEL 1
REMARK VINA RESULT:      -7.8      0.000      0.000
REMARK  Name = ZINC000186872603
REMARK                            x       y       z     vdW  Elec       q    Type
REMARK                         _______ _______ _______ _____ _____    ______ ____
ROOT
ATOM      1  N   LIG    1      169.321 146.318 145.829  0.00  0.00    -0.297 N 
ATOM      2  C   LIG    1      169.491 147.158 144.613  0.00  0.00    +0.123 C 
ATOM      3  C   LIG    1      170.965 147.630 144.551  0.00  0.00    +0.103 C 
ATOM      4  N   LIG    1      171.322 148.401 145.778  0.00  0.00    -0.299 NA
ATOM      5  C   LIG    1      171.152 147.523 146.979  0.00  0.00    +0.103 C 
ATOM      6  C   LIG    1      169.697 146.993 147.099  0.00  0.00    +0.123 C 
ENDROOT
BRANCH   1  10
ATOM      7  C   LIG    1      167.427 142.326 144.030  0.00  0.00    +0.066 C 
ATOM      8  C   LIG    1      167.370 143.474 145.009  0.00  0.00    +0.044 A 
ATOM      9  N   LIG    1      168.336 144.367 144.986  0.00  0.00    -0.220 NA
ATOM     10  C   LIG    1      168.294 145.384 145.856  0.00  0.00    +0.218 A 
ATOM     11  N   LIG    1      167.314 145.548 146.753  0.00  0.00    -0.219 NA
ATOM     12  C   LIG    1      166.331 144.666 146.801  0.00  0.00    +0.049 A 
ATOM     13  C   LIG    1      166.334 143.594 145.922  0.00  0.00    +0.046 A 
BRANCH  12  14
ATOM     14  C   LIG    1      165.208 144.836 147.820  0.00  0.00    +0.032 C 
ATOM     15  C   LIG    1      165.785 144.698 149.238  0.00  0.00    +0.014 C 
ATOM     16  C   LIG    1      164.128 143.772 147.566  0.00  0.00    +0.014 C 
ENDBRANCH  12  14
ENDBRANCH   1  10
BRANCH   4  17
ATOM     17  C   LIG    1      170.619 149.699 145.857  0.00  0.00    +0.085 C 
BRANCH  17  18
ATOM     18  C   LIG    1      171.366 150.485 146.950  0.00  0.00    +0.025 C 
BRANCH  18  19
ATOM     19  C   LIG    1      171.218 151.991 146.659  0.00  0.00    +0.097 C 
BRANCH  19  20
ATOM     20  C   LIG    1      170.016 152.514 147.416  0.00  0.00    +0.197 A 
ATOM     21  O   LIG    1      170.163 152.877 148.719  0.00  0.00    -0.440 OA
ATOM     22  C   LIG    1      168.952 153.295 149.096  0.00  0.00    +0.155 A 
ATOM     23  C   LIG    1      168.528 153.781 150.331  0.00  0.00    +0.048 A 
ATOM     24  C   LIG    1      167.192 154.153 150.453  0.00  0.00    +0.004 A 
ATOM     25  C   LIG    1      166.316 154.032 149.355  0.00  0.00    +0.002 A 
ATOM     26  C   LIG    1      166.772 153.541 148.133  0.00  0.00    +0.031 A 
ATOM     27  C   LIG    1      168.114 153.171 148.014  0.00  0.00    +0.110 A 
ATOM     28  N   LIG    1      168.831 152.669 146.954  0.00  0.00    -0.213 NA
ENDBRANCH  19  20
ENDBRANCH  18  19
ENDBRANCH  17  18
ENDBRANCH   4  17
TORSDOF 6
ENDMDL
MODEL 2
REMARK VINA RESULT:      -7.6     38.185     41.439
REMARK  Name = ZINC000186872603
REMARK                            x       y       z     vdW  Elec       q    Type
REMARK                         _______ _______ _______ _____ _____    ______ ____
ROOT
ATOM      1  N   LIG    1      186.943 112.485 148.022  0.00  0.00    -0.297 N 
ATOM      2  C   LIG    1      186.291 111.292 147.421  0.00  0.00    +0.123 C 
ATOM      3  C   LIG    1      185.950 111.616 145.944  0.00  0.00    +0.103 C 
ATOM      4  N   LIG    1      185.054 112.805 145.861  0.00  0.00    -0.299 NA
ATOM      5  C   LIG    1      185.747 113.989 146.462  0.00  0.00    +0.103 C 
ATOM      6  C   LIG    1      186.137 113.732 147.943  0.00  0.00    +0.123 C 
ENDROOT
BRANCH   1  10
ATOM      7  C   LIG    1      187.944 113.525 152.569  0.00  0.00    +0.066 C 
ATOM      8  C   LIG    1      188.278 112.793 151.292  0.00  0.00    +0.044 A 
ATOM      9  N   LIG    1      187.492 112.959 150.249  0.00  0.00    -0.220 NA
ATOM     10  C   LIG    1      187.781 112.308 149.116  0.00  0.00    +0.218 A 
ATOM     11  N   LIG    1      188.834 111.494 148.979  0.00  0.00    -0.219 NA
ATOM     12  C   LIG    1      189.640 111.305 150.011  0.00  0.00    +0.049 A 
ATOM     13  C   LIG    1      189.380 111.956 151.207  0.00  0.00    +0.046 A 
BRANCH  12  14
ATOM     14  C   LIG    1      190.843 110.376 149.873  0.00  0.00    +0.032 C 
ATOM     15  C   LIG    1      190.500 109.009 150.486  0.00  0.00    +0.014 C 
ATOM     16  C   LIG    1      192.052 111.005 150.586  0.00  0.00    +0.014 C 
ENDBRANCH  12  14
ENDBRANCH   1  10
BRANCH   4  17
ATOM     17  C   LIG    1      183.704 112.538 146.403  0.00  0.00    +0.085 C 
BRANCH  17  18
ATOM     18  C   LIG    1      182.787 113.552 145.694  0.00  0.00    +0.025 C 
BRANCH  18  19
ATOM     19  C   LIG    1      181.340 113.321 146.171  0.00  0.00    +0.097 C 
BRANCH  19  20
ATOM     20  C   LIG    1      181.000 111.857 145.990  0.00  0.00    +0.197 A 
ATOM     21  O   LIG    1      180.801 111.085 147.092  0.00  0.00    -0.440 OA
ATOM     22  C   LIG    1      180.515 109.871 146.611  0.00  0.00    +0.155 A 
ATOM     23  C   LIG    1      180.222 108.694 147.297  0.00  0.00    +0.048 A 
ATOM     24  C   LIG    1      179.957 107.557 146.540  0.00  0.00    +0.004 A 
ATOM     25  C   LIG    1      179.993 107.615 145.132  0.00  0.00    +0.002 A 
ATOM     26  C   LIG    1      180.289 108.808 144.477  0.00  0.00    +0.031 A 
ATOM     27  C   LIG    1      180.552 109.948 145.241  0.00  0.00    +0.110 A 
ATOM     28  N   LIG    1      180.865 111.237 144.877  0.00  0.00    -0.213 NA
ENDBRANCH  19  20
ENDBRANCH  18  19
ENDBRANCH  17  18
ENDBRANCH   4  17
TORSDOF 6
ENDMDL
MODEL 3
REMARK VINA RESULT:      -7.4      3.060      3.764
REMARK  Name = ZINC000186872603
REMARK                            x       y       z     vdW  Elec       q    Type
REMARK                         _______ _______ _______ _____ _____    ______ ____
ROOT
ATOM      1  N   LIG    1      170.122 145.497 147.034  0.00  0.00    -0.297 N 
ATOM      2  C   LIG    1      168.891 145.559 146.203  0.00  0.00    +0.123 C 
ATOM      3  C   LIG    1      169.257 146.198 144.839  0.00  0.00    +0.103 C 
ATOM      4  N   LIG    1      169.830 147.561 145.033  0.00  0.00    -0.299 NA
ATOM      5  C   LIG    1      171.073 147.459 145.862  0.00  0.00    +0.103 C 
ATOM      6  C   LIG    1      170.789 146.809 147.243  0.00  0.00    +0.123 C 
ENDROOT
BRANCH   1  10
ATOM      7  C   LIG    1      171.994 141.406 148.619  0.00  0.00    +0.066 C 
ATOM      8  C   LIG    1      171.082 142.591 148.823  0.00  0.00    +0.044 A 
ATOM      9  N   LIG    1      171.001 143.492 147.867  0.00  0.00    -0.220 NA
ATOM     10  C   LIG    1      170.198 144.549 148.045  0.00  0.00    +0.218 A 
ATOM     11  N   LIG    1      169.463 144.741 149.147  0.00  0.00    -0.219 NA
ATOM     12  C   LIG    1      169.526 143.854 150.126  0.00  0.00    +0.049 A 
ATOM     13  C   LIG    1      170.347 142.744 149.988  0.00  0.00    +0.046 A 
BRANCH  12  14
ATOM     14  C   LIG    1      168.698 144.059 151.391  0.00  0.00    +0.032 C 
ATOM     15  C   LIG    1      167.248 144.385 150.999  0.00  0.00    +0.014 C 
ATOM     16  C   LIG    1      169.309 145.203 152.216  0.00  0.00    +0.014 C 
ENDBRANCH  12  14
ENDBRANCH   1  10
BRANCH   4  17
ATOM     17  C   LIG    1      168.833 148.531 145.533  0.00  0.00    +0.085 C 
BRANCH  17  18
ATOM     18  C   LIG    1      169.258 149.881 144.928  0.00  0.00    +0.025 C 
BRANCH  18  19
ATOM     19  C   LIG    1      167.997 150.616 144.435  0.00  0.00    +0.097 C 
BRANCH  19  20
ATOM     20  C   LIG    1      167.332 151.284 145.620  0.00  0.00    +0.197 A 
ATOM     21  O   LIG    1      166.023 151.019 145.878  0.00  0.00    -0.440 OA
ATOM     22  C   LIG    1      165.738 151.737 146.968  0.00  0.00    +0.155 A 
ATOM     23  C   LIG    1      164.539 151.841 147.671  0.00  0.00    +0.048 A 
ATOM     24  C   LIG    1      164.518 152.670 148.788  0.00  0.00    +0.004 A 
ATOM     25  C   LIG    1      165.678 153.370 149.178  0.00  0.00    +0.002 A 
ATOM     26  C   LIG    1      166.862 153.243 148.454  0.00  0.00    +0.031 A 
ATOM     27  C   LIG    1      166.879 152.409 147.333  0.00  0.00    +0.110 A 
ATOM     28  N   LIG    1      167.882 152.093 146.448  0.00  0.00    -0.213 NA
ENDBRANCH  19  20
ENDBRANCH  18  19
ENDBRANCH  17  18
ENDBRANCH   4  17
TORSDOF 6
ENDMDL
MODEL 4
REMARK VINA RESULT:      -7.3     43.305     46.345
REMARK  Name = ZINC000186872603
REMARK                            x       y       z     vdW  Elec       q    Type
REMARK                         _______ _______ _______ _____ _____    ______ ____
ROOT
ATOM      1  N   LIG    1      203.297 114.801 145.720  0.00  0.00    -0.297 N 
ATOM      2  C   LIG    1      202.123 114.533 146.592  0.00  0.00    +0.123 C 
ATOM      3  C   LIG    1      200.844 114.964 145.830  0.00  0.00    +0.103 C 
ATOM      4  N   LIG    1      200.911 116.410 145.466  0.00  0.00    -0.299 NA
ATOM      5  C   LIG    1      202.095 116.640 144.580  0.00  0.00    +0.103 C 
ATOM      6  C   LIG    1      203.419 116.213 145.270  0.00  0.00    +0.123 C 
ENDROOT
BRANCH   1  10
ATOM      7  C   LIG    1      205.529 111.314 148.090  0.00  0.00    +0.066 C 
ATOM      8  C   LIG    1      205.548 112.405 147.047  0.00  0.00    +0.044 A 
ATOM      9  N   LIG    1      204.451 113.106 146.852  0.00  0.00    -0.220 NA
ATOM     10  C   LIG    1      204.460 114.070 145.923  0.00  0.00    +0.218 A 
ATOM     11  N   LIG    1      205.531 114.368 145.178  0.00  0.00    -0.219 NA
ATOM     12  C   LIG    1      206.647 113.679 145.350  0.00  0.00    +0.049 A 
ATOM     13  C   LIG    1      206.684 112.668 146.298  0.00  0.00    +0.046 A 
BRANCH  12  14
ATOM     14  C   LIG    1      207.877 114.003 144.506  0.00  0.00    +0.032 C 
ATOM     15  C   LIG    1      207.782 115.454 144.011  0.00  0.00    +0.014 C 
ATOM     16  C   LIG    1      207.950 113.026 143.322  0.00  0.00    +0.014 C 
ENDBRANCH  12  14
ENDBRANCH   1  10
BRANCH   4  17
ATOM     17  C   LIG    1      200.841 117.296 146.647  0.00  0.00    +0.085 C 
BRANCH  17  18
ATOM     18  C   LIG    1      199.339 117.414 146.963  0.00  0.00    +0.025 C 
BRANCH  18  19
ATOM     19  C   LIG    1      199.086 118.773 147.644  0.00  0.00    +0.097 C 
BRANCH  19  20
ATOM     20  C   LIG    1      197.645 119.172 147.405  0.00  0.00    +0.197 A 
ATOM     21  O   LIG    1      196.962 118.594 146.380  0.00  0.00    -0.440 OA
ATOM     22  C   LIG    1      195.742 119.136 146.436  0.00  0.00    +0.155 A 
ATOM     23  C   LIG    1      194.633 118.906 145.624  0.00  0.00    +0.048 A 
ATOM     24  C   LIG    1      193.469 119.613 145.907  0.00  0.00    +0.004 A 
ATOM     25  C   LIG    1      193.434 120.527 146.981  0.00  0.00    +0.002 A 
ATOM     26  C   LIG    1      194.561 120.734 147.775  0.00  0.00    +0.031 A 
ATOM     27  C   LIG    1      195.727 120.020 147.488  0.00  0.00    +0.110 A 
ATOM     28  N   LIG    1      196.964 120.015 148.088  0.00  0.00    -0.213 NA
ENDBRANCH  19  20
ENDBRANCH  18  19
ENDBRANCH  17  18
ENDBRANCH   4  17
TORSDOF 6
ENDMDL
MODEL 5
REMARK VINA RESULT:      -7.3     43.520     46.508
REMARK  Name = ZINC000186872603
REMARK                            x       y       z     vdW  Elec       q    Type
REMARK                         _______ _______ _______ _____ _____    ______ ____
ROOT
ATOM      1  N   LIG    1      203.626 114.901 145.475  0.00  0.00    -0.297 N 
ATOM      2  C   LIG    1      202.687 114.140 146.341  0.00  0.00    +0.123 C 
ATOM      3  C   LIG    1      201.261 114.278 145.750  0.00  0.00    +0.103 C 
ATOM      4  N   LIG    1      200.860 115.713 145.673  0.00  0.00    -0.299 NA
ATOM      5  C   LIG    1      201.818 116.444 144.784  0.00  0.00    +0.103 C 
ATOM      6  C   LIG    1      203.278 116.336 145.303  0.00  0.00    +0.123 C 
ENDROOT
BRANCH   1  10
ATOM      7  C   LIG    1      207.953 115.436 143.539  0.00  0.00    +0.066 C 
ATOM      8  C   LIG    1      207.047 114.781 144.554  0.00  0.00    +0.044 A 
ATOM      9  N   LIG    1      205.773 115.113 144.565  0.00  0.00    -0.220 NA
ATOM     10  C   LIG    1      204.967 114.541 145.467  0.00  0.00    +0.218 A 
ATOM     11  N   LIG    1      205.384 113.638 146.363  0.00  0.00    -0.219 NA
ATOM     12  C   LIG    1      206.659 113.286 146.378  0.00  0.00    +0.049 A 
ATOM     13  C   LIG    1      207.532 113.856 145.464  0.00  0.00    +0.046 A 
BRANCH  12  14
ATOM     14  C   LIG    1      207.151 112.261 147.395  0.00  0.00    +0.032 C 
ATOM     15  C   LIG    1      205.959 111.757 148.224  0.00  0.00    +0.014 C 
ATOM     16  C   LIG    1      208.207 112.915 148.301  0.00  0.00    +0.014 C 
ENDBRANCH  12  14
ENDBRANCH   1  10
BRANCH   4  17
ATOM     17  C   LIG    1      200.667 116.322 147.006  0.00  0.00    +0.085 C 
BRANCH  17  18
ATOM     18  C   LIG    1      199.249 116.919 146.964  0.00  0.00    +0.025 C 
BRANCH  18  19
ATOM     19  C   LIG    1      199.324 118.392 147.410  0.00  0.00    +0.097 C 
BRANCH  19  20
ATOM     20  C   LIG    1      197.927 118.976 147.389  0.00  0.00    +0.197 A 
ATOM     21  O   LIG    1      196.986 118.404 146.589  0.00  0.00    -0.440 OA
ATOM     22  C   LIG    1      195.881 119.126 146.796  0.00  0.00    +0.155 A 
ATOM     23  C   LIG    1      194.613 118.982 146.236  0.00  0.00    +0.048 A 
ATOM     24  C   LIG    1      193.628 119.881 146.632  0.00  0.00    +0.004 A 
ATOM     25  C   LIG    1      193.923 120.895 147.566  0.00  0.00    +0.002 A 
ATOM     26  C   LIG    1      195.202 121.012 148.108  0.00  0.00    +0.031 A 
ATOM     27  C   LIG    1      196.187 120.105 147.708  0.00  0.00    +0.110 A 
ATOM     28  N   LIG    1      197.508 119.978 148.069  0.00  0.00    -0.213 NA
ENDBRANCH  19  20
ENDBRANCH  18  19
ENDBRANCH  17  18
ENDBRANCH   4  17
TORSDOF 6
ENDMDL
MODEL 6
REMARK VINA RESULT:      -7.1      3.649      7.641
REMARK  Name = ZINC000186872603
REMARK                            x       y       z     vdW  Elec       q    Type
REMARK                         _______ _______ _______ _____ _____    ______ ____
ROOT
ATOM      1  N   LIG    1      168.487 146.057 146.695  0.00  0.00    -0.297 N 
ATOM      2  C   LIG    1      168.177 144.673 146.248  0.00  0.00    +0.123 C 
ATOM      3  C   LIG    1      166.786 144.282 146.808  0.00  0.00    +0.103 C 
ATOM      4  N   LIG    1      166.774 144.369 148.297  0.00  0.00    -0.299 NA
ATOM      5  C   LIG    1      167.077 145.776 148.710  0.00  0.00    +0.103 C 
ATOM      6  C   LIG    1      168.453 146.249 148.169  0.00  0.00    +0.123 C 
ENDROOT
BRANCH   1  10
ATOM      7  C   LIG    1      171.527 146.289 143.027  0.00  0.00    +0.066 C 
ATOM      8  C   LIG    1      170.841 146.947 144.199  0.00  0.00    +0.044 A 
ATOM      9  N   LIG    1      169.996 146.234 144.913  0.00  0.00    -0.220 NA
ATOM     10  C   LIG    1      169.381 146.815 145.951  0.00  0.00    +0.218 A 
ATOM     11  N   LIG    1      169.581 148.088 146.310  0.00  0.00    -0.219 NA
ATOM     12  C   LIG    1      170.422 148.831 145.610  0.00  0.00    +0.049 A 
ATOM     13  C   LIG    1      171.081 148.273 144.524  0.00  0.00    +0.046 A 
BRANCH  12  14
ATOM     14  C   LIG    1      170.659 150.286 146.003  0.00  0.00    +0.032 C 
ATOM     15  C   LIG    1      170.874 151.124 144.733  0.00  0.00    +0.014 C 
ATOM     16  C   LIG    1      171.887 150.368 146.924  0.00  0.00    +0.014 C 
ENDBRANCH  12  14
ENDBRANCH   1  10
BRANCH   4  17
ATOM     17  C   LIG    1      167.626 143.342 148.933  0.00  0.00    +0.085 C 
BRANCH  17  18
ATOM     18  C   LIG    1      166.649 142.453 149.724  0.00  0.00    +0.025 C 
BRANCH  18  19
ATOM     19  C   LIG    1      166.488 143.041 151.139  0.00  0.00    +0.097 C 
BRANCH  19  20
ATOM     20  C   LIG    1      165.281 143.954 151.149  0.00  0.00    +0.197 A 
ATOM     21  O   LIG    1      165.376 145.166 151.760  0.00  0.00    -0.440 OA
ATOM     22  C   LIG    1      164.174 145.726 151.593  0.00  0.00    +0.155 A 
ATOM     23  C   LIG    1      163.712 146.971 152.017  0.00  0.00    +0.048 A 
ATOM     24  C   LIG    1      162.400 147.311 151.704  0.00  0.00    +0.004 A 
ATOM     25  C   LIG    1      161.583 146.413 150.986  0.00  0.00    +0.002 A 
ATOM     26  C   LIG    1      162.076 145.176 150.577  0.00  0.00    +0.031 A 
ATOM     27  C   LIG    1      163.395 144.840 150.891  0.00  0.00    +0.110 A 
ATOM     28  N   LIG    1      164.138 143.714 150.621  0.00  0.00    -0.213 NA
ENDBRANCH  19  20
ENDBRANCH  18  19
ENDBRANCH  17  18
ENDBRANCH   4  17
TORSDOF 6
ENDMDL
MODEL 7
REMARK VINA RESULT:      -6.9     47.986     51.155
REMARK  Name = ZINC000186872603
REMARK                            x       y       z     vdW  Elec       q    Type
REMARK                         _______ _______ _______ _____ _____    ______ ____
ROOT
ATOM      1  N   LIG    1      203.171 113.064 145.321  0.00  0.00    -0.297 N 
ATOM      2  C   LIG    1      204.277 112.840 144.352  0.00  0.00    +0.123 C 
ATOM      3  C   LIG    1      205.136 111.655 144.862  0.00  0.00    +0.103 C 
ATOM      4  N   LIG    1      205.677 111.944 146.222  0.00  0.00    -0.299 NA
ATOM      5  C   LIG    1      204.539 112.152 147.171  0.00  0.00    +0.103 C 
ATOM      6  C   LIG    1      203.618 113.317 146.716  0.00  0.00    +0.123 C 
ENDROOT
BRANCH   1  10
ATOM      7  C   LIG    1      198.858 112.635 143.329  0.00  0.00    +0.066 C 
ATOM      8  C   LIG    1      199.942 113.500 143.924  0.00  0.00    +0.044 A 
ATOM      9  N   LIG    1      201.048 112.921 144.342  0.00  0.00    -0.220 NA
ATOM     10  C   LIG    1      202.010 113.683 144.877  0.00  0.00    +0.218 A 
ATOM     11  N   LIG    1      201.914 115.012 145.006  0.00  0.00    -0.219 NA
ATOM     12  C   LIG    1      200.814 115.621 144.597  0.00  0.00    +0.049 A 
ATOM     13  C   LIG    1      199.788 114.872 144.039  0.00  0.00    +0.046 A 
BRANCH  12  14
ATOM     14  C   LIG    1      200.686 117.135 144.741  0.00  0.00    +0.032 C 
ATOM     15  C   LIG    1      201.689 117.819 143.799  0.00  0.00    +0.014 C 
ATOM     16  C   LIG    1      200.954 117.529 146.202  0.00  0.00    +0.014 C 
ENDBRANCH  12  14
ENDBRANCH   1  10
BRANCH   4  17
ATOM     17  C   LIG    1      206.681 113.030 146.214  0.00  0.00    +0.085 C 
BRANCH  17  18
ATOM     18  C   LIG    1      207.103 113.187 147.686  0.00  0.00    +0.025 C 
BRANCH  18  19
ATOM     19  C   LIG    1      208.301 112.257 147.955  0.00  0.00    +0.097 C 
BRANCH  19  20
ATOM     20  C   LIG    1      208.043 111.494 149.237  0.00  0.00    +0.197 A 
ATOM     21  O   LIG    1      206.875 111.700 149.902  0.00  0.00    -0.440 OA
ATOM     22  C   LIG    1      206.941 110.893 150.965  0.00  0.00    +0.155 A 
ATOM     23  C   LIG    1      206.014 110.696 151.987  0.00  0.00    +0.048 A 
ATOM     24  C   LIG    1      206.339 109.783 152.984  0.00  0.00    +0.004 A 
ATOM     25  C   LIG    1      207.567 109.091 152.945  0.00  0.00    +0.002 A 
ATOM     26  C   LIG    1      208.473 109.310 151.908  0.00  0.00    +0.031 A 
ATOM     27  C   LIG    1      208.141 110.228 150.908  0.00  0.00    +0.110 A 
ATOM     28  N   LIG    1      208.822 110.637 149.785  0.00  0.00    -0.213 NA
ENDBRANCH  19  20
ENDBRANCH  18  19
ENDBRANCH  17  18
ENDBRANCH   4  17
TORSDOF 6
ENDMDL
MODEL 8
REMARK VINA RESULT:      -6.8      3.732      7.786
REMARK  Name = ZINC000186872603
REMARK                            x       y       z     vdW  Elec       q    Type
REMARK                         _______ _______ _______ _____ _____    ______ ____
ROOT
ATOM      1  N   LIG    1      167.903 145.997 147.063  0.00  0.00    -0.297 N 
ATOM      2  C   LIG    1      167.189 144.813 146.517  0.00  0.00    +0.123 C 
ATOM      3  C   LIG    1      165.933 144.558 147.389  0.00  0.00    +0.103 C 
ATOM      4  N   LIG    1      166.318 144.331 148.812  0.00  0.00    -0.299 NA
ATOM      5  C   LIG    1      167.022 145.546 149.332  0.00  0.00    +0.103 C 
ATOM      6  C   LIG    1      168.287 145.878 148.495  0.00  0.00    +0.123 C 
ENDROOT
BRANCH   1  10
ATOM      7  C   LIG    1      171.358 145.998 143.774  0.00  0.00    +0.066 C 
ATOM      8  C   LIG    1      170.380 146.752 144.642  0.00  0.00    +0.044 A 
ATOM      9  N   LIG    1      169.599 146.066 145.450  0.00  0.00    -0.220 NA
ATOM     10  C   LIG    1      168.726 146.729 146.218  0.00  0.00    +0.218 A 
ATOM     11  N   LIG    1      168.602 148.062 146.214  0.00  0.00    -0.219 NA
ATOM     12  C   LIG    1      169.371 148.778 145.410  0.00  0.00    +0.049 A 
ATOM     13  C   LIG    1      170.289 148.134 144.595  0.00  0.00    +0.046 A 
BRANCH  12  14
ATOM     14  C   LIG    1      169.240 150.298 145.391  0.00  0.00    +0.032 C 
ATOM     15  C   LIG    1      168.084 150.695 144.459  0.00  0.00    +0.014 C 
ATOM     16  C   LIG    1      170.564 150.914 144.910  0.00  0.00    +0.014 C 
ENDBRANCH  12  14
ENDBRANCH   1  10
BRANCH   4  17
ATOM     17  C   LIG    1      167.051 143.062 149.007  0.00  0.00    +0.085 C 
BRANCH  17  18
ATOM     18  C   LIG    1      166.111 142.190 149.858  0.00  0.00    +0.025 C 
BRANCH  18  19
ATOM     19  C   LIG    1      166.859 141.767 151.138  0.00  0.00    +0.097 C 
BRANCH  19  20
ATOM     20  C   LIG    1      167.055 142.990 152.009  0.00  0.00    +0.197 A 
ATOM     21  O   LIG    1      165.988 143.793 152.267  0.00  0.00    -0.440 OA
ATOM     22  C   LIG    1      166.472 144.760 153.053  0.00  0.00    +0.155 A 
ATOM     23  C   LIG    1      165.816 145.851 153.620  0.00  0.00    +0.048 A 
ATOM     24  C   LIG    1      166.567 146.715 154.410  0.00  0.00    +0.004 A 
ATOM     25  C   LIG    1      167.942 146.478 154.616  0.00  0.00    +0.002 A 
ATOM     26  C   LIG    1      168.568 145.376 154.035  0.00  0.00    +0.031 A 
ATOM     27  C   LIG    1      167.809 144.511 153.244  0.00  0.00    +0.110 A 
ATOM     28  N   LIG    1      168.148 143.366 152.561  0.00  0.00    -0.213 NA
ENDBRANCH  19  20
ENDBRANCH  18  19
ENDBRANCH  17  18
ENDBRANCH   4  17
TORSDOF 6
ENDMDL
MODEL 9
REMARK VINA RESULT:      -6.8     48.064     51.267
REMARK  Name = ZINC000186872603
REMARK                            x       y       z     vdW  Elec       q    Type
REMARK                         _______ _______ _______ _____ _____    ______ ____
ROOT
ATOM      1  N   LIG    1      203.095 113.283 145.559  0.00  0.00    -0.297 N 
ATOM      2  C   LIG    1      204.042 113.075 144.431  0.00  0.00    +0.123 C 
ATOM      3  C   LIG    1      204.941 111.859 144.770  0.00  0.00    +0.103 C 
ATOM      4  N   LIG    1      205.682 112.092 146.044  0.00  0.00    -0.299 NA
ATOM      5  C   LIG    1      204.699 112.285 147.157  0.00  0.00    +0.103 C 
ATOM      6  C   LIG    1      203.746 113.479 146.881  0.00  0.00    +0.123 C 
ENDROOT
BRANCH   1  10
ATOM      7  C   LIG    1      199.898 116.546 146.933  0.00  0.00    +0.066 C 
ATOM      8  C   LIG    1      200.351 115.494 145.951  0.00  0.00    +0.044 A 
ATOM      9  N   LIG    1      201.485 114.866 146.182  0.00  0.00    -0.220 NA
ATOM     10  C   LIG    1      201.895 113.936 145.311  0.00  0.00    +0.218 A 
ATOM     11  N   LIG    1      201.209 113.600 144.212  0.00  0.00    -0.219 NA
ATOM     12  C   LIG    1      200.067 114.215 143.952  0.00  0.00    +0.049 A 
ATOM     13  C   LIG    1      199.604 115.188 144.824  0.00  0.00    +0.046 A 
BRANCH  12  14
ATOM     14  C   LIG    1      199.274 113.847 142.701  0.00  0.00    +0.032 C 
ATOM     15  C   LIG    1      198.868 112.367 142.776  0.00  0.00    +0.014 C 
ATOM     16  C   LIG    1      200.139 114.113 141.458  0.00  0.00    +0.014 C 
ENDBRANCH  12  14
ENDBRANCH   1  10
BRANCH   4  17
ATOM     17  C   LIG    1      206.696 113.161 145.924  0.00  0.00    +0.085 C 
BRANCH  17  18
ATOM     18  C   LIG    1      207.260 113.331 147.346  0.00  0.00    +0.025 C 
BRANCH  18  19
ATOM     19  C   LIG    1      208.497 112.424 147.495  0.00  0.00    +0.097 C 
BRANCH  19  20
ATOM     20  C   LIG    1      208.337 111.590 148.748  0.00  0.00    +0.197 A 
ATOM     21  O   LIG    1      207.305 111.859 149.592  0.00  0.00    -0.440 OA
ATOM     22  C   LIG    1      207.429 110.965 150.577  0.00  0.00    +0.155 A 
ATOM     23  C   LIG    1      206.638 110.782 151.710  0.00  0.00    +0.048 A 
ATOM     24  C   LIG    1      206.995 109.762 152.587  0.00  0.00    +0.004 A 
ATOM     25  C   LIG    1      208.121 108.956 152.320  0.00  0.00    +0.002 A 
ATOM     26  C   LIG    1      208.890 109.165 151.178  0.00  0.00    +0.031 A 
ATOM     27  C   LIG    1      208.527 110.189 150.300  0.00  0.00    +0.110 A 
ATOM     28  N   LIG    1      209.084 110.616 149.118  0.00  0.00    -0.213 NA
ENDBRANCH  19  20
ENDBRANCH  18  19
ENDBRANCH  17  18
ENDBRANCH   4  17
TORSDOF 6
ENDMDL
