REMARK VINA RESULT:      -6.5      5.725      6.256
REMARK  Name = ZINC000193545175
REMARK                            x       y       z     vdW  Elec       q    Type
REMARK                         _______ _______ _______ _____ _____    ______ ____
ROOT
ATOM      1  C   LIG    1      165.532 150.414 149.959  0.00  0.00    +0.171 A 
ATOM      2  N   LIG    1      165.824 149.139 149.554  0.00  0.00    -0.204 NA
ATOM      3  C   LIG    1      165.407 148.322 150.457  0.00  0.00    +0.185 A 
ATOM      4  S   LIG    1      164.659 149.076 151.802  0.00  0.00    +0.050 S 
ATOM      5  N   LIG    1      164.923 150.544 151.110  0.00  0.00    -0.187 NA
ENDROOT
BRANCH   1   8
ATOM      6  C   LIG    1      166.605 153.892 148.947  0.00  0.00    +0.121 A 
ATOM      7  C   LIG    1      166.270 152.792 149.734  0.00  0.00    +0.057 A 
ATOM      8  C   LIG    1      165.885 151.581 149.137  0.00  0.00    +0.023 A 
ATOM      9  C   LIG    1      165.849 151.521 147.731  0.00  0.00    +0.012 A 
ATOM     10  C   LIG    1      166.185 152.625 146.953  0.00  0.00    +0.004 A 
ATOM     11  C   LIG    1      166.565 153.816 147.559  0.00  0.00    +0.045 A 
BRANCH   6  13
ATOM     12  C   LIG    1      166.324 155.751 150.602  0.00  0.00    +0.277 C 
ATOM     13  O   LIG    1      166.987 155.094 149.498  0.00  0.00    -0.495 OA
ENDBRANCH   6  13
ENDBRANCH   1   8
BRANCH   3  14
ATOM     14  N   LIG    1      165.597 146.954 150.259  0.00  0.00    -0.259 N 
ATOM     15  H   LIG    1      166.448 146.577 150.685  0.00  0.00    +0.157 HD
ATOM     16  C   LIG    1      164.795 146.068 149.591  0.00  0.00    +0.254 C 
ATOM     17  O   LIG    1      163.763 146.491 149.094  0.00  0.00    -0.270 OA
BRANCH  16  18
ATOM     18  C   LIG    1      165.184 144.667 149.505  0.00  0.00    +0.089 A 
ATOM     19  C   LIG    1      165.200 143.820 148.429  0.00  0.00    +0.182 A 
ATOM     20 BR   LIG    1      164.742 144.028 146.608  0.00  0.00    -0.008 Br
ATOM     21  O   LIG    1      165.638 142.603 148.814  0.00  0.00    -0.456 OA
ATOM     22  C   LIG    1      165.905 142.659 150.141  0.00  0.00    +0.197 A 
ATOM     23  C   LIG    1      165.639 143.901 150.596  0.00  0.00    +0.055 A 
ENDBRANCH  16  18
ENDBRANCH   3  14
TORSDOF 4
