REMARK VINA RESULT:      -8.4     32.160     35.292
REMARK  Name = 
REMARK                            x       y       z     vdW  Elec       q    Type
REMARK                         _______ _______ _______ _____ _____    ______ ____
ROOT
ATOM      1  C   LIG    1      200.353 115.094 140.693  0.00  0.00    +0.243 C 
ATOM      2  C   LIG    1      200.041 116.581 140.189  0.00  0.00    +0.196 C 
ATOM      3  O   LIG    1      200.876 116.540 139.368  0.00  0.00    -0.292 OA
ATOM      4  C   LIG    1      199.317 117.745 140.280  0.00  0.00    +0.090 C 
ATOM      5  C   LIG    1      198.251 118.006 141.352  0.00  0.00    +0.093 C 
ATOM      6  C   LIG    1      197.561 119.314 140.761  0.00  0.00    +0.191 C 
ATOM      7  C   LIG    1      198.406 120.404 141.540  0.00  0.00    +0.157 C 
ATOM      8  C   LIG    1      199.777 120.167 140.601  0.00  0.00    +0.067 C 
ATOM      9  O   LIG    1      197.902 121.409 140.562  0.00  0.00    -0.349 OA
ATOM     10  C   LIG    1      198.080 120.236 139.785  0.00  0.00    +0.185 C 
ATOM     11  C   LIG    1      198.583 118.401 142.802  0.00  0.00    +0.201 C 
ATOM     12  C   LIG    1      199.386 117.270 143.567  0.00  0.00    +0.170 C 
ATOM     13  C   LIG    1      198.899 115.964 143.002  0.00  0.00    +0.048 C 
ATOM     14  C   LIG    1      198.899 114.836 144.113  0.00  0.00    +0.007 C 
ATOM     15  C   LIG    1      197.536 115.886 142.479  0.00  0.00    +0.007 C 
ATOM     16  O   LIG    1      198.849 117.066 144.831  0.00  0.00    -0.222 OA
ATOM     17  C   LIG    1      200.819 117.442 143.767  0.00  0.00    +0.082 C 
ATOM     18  C   LIG    1      200.986 115.852 144.253  0.00  0.00    +0.189 C 
ATOM     19  C   LIG    1      201.185 115.388 142.701  0.00  0.00    -0.009 C 
ATOM     20  C   LIG    1      202.400 114.999 142.112  0.00  0.00    +0.029 C 
ATOM     21  C   LIG    1      199.192 118.199 138.934  0.00  0.00    +0.010 C 
ATOM     22  C   LIG    1      200.301 118.746 141.124  0.00  0.00    +0.161 C 
ATOM     23  O   LIG    1      201.471 118.752 140.178  0.00  0.00    -0.223 OA
ATOM     24  C   LIG    1      199.986 115.519 142.203  0.00  0.00    -0.000 C 
ENDROOT
BRANCH   1  25
ATOM     25  O   LIG    1      198.969 114.516 140.390  0.00  0.00    -0.440 OA
BRANCH  25  27
ATOM     26  C   LIG    1      197.883 112.493 141.377  0.00  0.00    +0.121 C 
ATOM     27  C   LIG    1      198.956 113.153 140.632  0.00  0.00    +0.318 C 
ATOM     28  O   LIG    1      199.860 112.376 140.234  0.00  0.00    -0.250 OA
ENDBRANCH  25  27
ENDBRANCH   1  25
BRANCH   6  29
ATOM     29  O   LIG    1      196.297 119.256 140.543  0.00  0.00    -0.451 OA
BRANCH  29  30
ATOM     30  C   LIG    1      195.194 119.890 140.918  0.00  0.00    +0.317 C 
ATOM     31  O   LIG    1      195.134 121.137 140.931  0.00  0.00    -0.250 OA
ATOM     32  C   LIG    1      193.900 119.266 141.367  0.00  0.00    +0.121 C 
ENDBRANCH  29  30
ENDBRANCH   6  29
BRANCH  11  33
ATOM     33  O   LIG    1      197.377 118.445 143.470  0.00  0.00    -0.446 OA
BRANCH  33  34
ATOM     34  C   LIG    1      196.310 118.481 144.059  0.00  0.00    +0.341 C 
ATOM     35  O   LIG    1      195.708 117.525 143.508  0.00  0.00    -0.245 OA
BRANCH  34  36
ATOM     36  C   LIG    1      195.490 119.120 145.065  0.00  0.00    +0.076 A 
ATOM     37  C   LIG    1      194.089 118.925 145.065  0.00  0.00    +0.006 A 
ATOM     38  C   LIG    1      193.285 119.509 146.005  0.00  0.00    +0.000 A 
ATOM     39  C   LIG    1      193.791 120.313 146.997  0.00  0.00    +0.000 A 
ATOM     40  C   LIG    1      195.173 120.535 147.036  0.00  0.00    +0.000 A 
ATOM     41  C   LIG    1      195.924 119.918 146.061  0.00  0.00    +0.006 A 
ENDBRANCH  34  36
ENDBRANCH  33  34
ENDBRANCH  11  33
BRANCH  18  42
ATOM     42  O   LIG    1      202.459 115.850 144.616  0.00  0.00    -0.446 OA
BRANCH  42  43
ATOM     43  C   LIG    1      202.668 114.993 145.595  0.00  0.00    +0.350 C 
ATOM     44  O   LIG    1      202.278 115.210 146.761  0.00  0.00    -0.247 OA
BRANCH  43  45
ATOM     45  C   LIG    1      203.435 113.580 145.435  0.00  0.00    +0.273 C 
ATOM     46  O   LIG    1      203.206 113.090 146.826  0.00  0.00    -0.209 OA
BRANCH  45  47
ATOM     47  C   LIG    1      204.941 114.322 145.804  0.00  0.00    +0.159 C 
BRANCH  47  48
ATOM     48  C   LIG    1      205.459 114.567 144.357  0.00  0.00    +0.000 A 
ATOM     49  C   LIG    1      205.810 115.871 144.138  0.00  0.00    -0.003 A 
ATOM     50  C   LIG    1      206.293 116.300 142.919  0.00  0.00    -0.000 A 
ATOM     51  C   LIG    1      206.409 115.362 141.928  0.00  0.00    -0.000 A 
ATOM     52  C   LIG    1      206.063 114.057 142.133  0.00  0.00    -0.000 A 
ATOM     53  C   LIG    1      205.584 113.696 143.383  0.00  0.00    -0.003 A 
ENDBRANCH  47  48
BRANCH  47  54
ATOM     54  N   LIG    1      205.619 112.980 146.123  0.00  0.00    -0.196 NA
ATOM     55  C   LIG    1      206.730 112.830 146.861  0.00  0.00    +0.265 C 
ATOM     56  O   LIG    1      207.297 113.830 147.350  0.00  0.00    -0.268 OA
BRANCH  55  57
ATOM     57  C   LIG    1      207.286 111.505 147.099  0.00  0.00    +0.055 A 
ATOM     58  C   LIG    1      207.985 111.210 148.251  0.00  0.00    +0.005 A 
ATOM     59  C   LIG    1      208.483 109.942 148.411  0.00  0.00    +0.000 A 
ATOM     60  C   LIG    1      208.314 108.948 147.466  0.00  0.00    +0.000 A 
ATOM     61  C   LIG    1      207.612 109.259 146.317  0.00  0.00    +0.000 A 
ATOM     62  C   LIG    1      207.116 110.527 146.164  0.00  0.00    +0.005 A 
ENDBRANCH  55  57
ENDBRANCH  47  54
ENDBRANCH  45  47
ENDBRANCH  43  45
ENDBRANCH  42  43
ENDBRANCH  18  42
TORSDOF 14
