REMARK VINA RESULT:      -6.6      4.730      6.659
REMARK  Name = ZINC000000623204
REMARK                            x       y       z     vdW  Elec       q    Type
REMARK                         _______ _______ _______ _____ _____    ______ ____
ROOT
ATOM      1  C   LIG    1      167.066 144.050 150.109  0.00  0.00    +0.124 A 
ATOM      2  C   LIG    1      168.236 144.389 150.807  0.00  0.00    +0.067 A 
ATOM      3 CL   LIG    1      168.452 144.029 152.491  0.00  0.00    -0.082 Cl
ATOM      4  C   LIG    1      169.274 145.062 150.156  0.00  0.00    +0.023 A 
ATOM      5  C   LIG    1      169.155 145.410 148.818  0.00  0.00    +0.014 A 
ATOM      6  C   LIG    1      167.995 145.086 148.098  0.00  0.00    +0.039 A 
ATOM      7  C   LIG    1      166.963 144.410 148.764  0.00  0.00    +0.043 A 
ENDROOT
BRANCH   6   8
ATOM      8  C   LIG    1      167.839 145.444 146.688  0.00  0.00    +0.245 C 
ATOM      9  N   LIG    1      168.737 146.291 146.108  0.00  0.00    -0.305 N 
ATOM     10  H   LIG    1      169.512 146.671 146.659  0.00  0.00    +0.150 HD
ATOM     11  O   LIG    1      166.938 145.006 145.983  0.00  0.00    -0.270 OA
BRANCH   9  12
ATOM     12  C   LIG    1      168.624 146.757 144.741  0.00  0.00    +0.100 C 
ATOM     13  C   LIG    1      169.720 146.063 143.921  0.00  0.00    +0.033 C 
BRANCH  12  14
ATOM     14  C   LIG    1      168.893 148.256 144.781  0.00  0.00    -0.027 A 
ATOM     15  C   LIG    1      167.860 149.197 144.701  0.00  0.00    +0.005 A 
ATOM     16  C   LIG    1      168.143 150.560 144.729  0.00  0.00    +0.000 A 
ATOM     17  C   LIG    1      169.459 150.996 144.836  0.00  0.00    +0.000 A 
ATOM     18  C   LIG    1      170.492 150.068 144.915  0.00  0.00    +0.000 A 
ATOM     19  C   LIG    1      170.209 148.706 144.888  0.00  0.00    +0.005 A 
ENDBRANCH  12  14
ENDBRANCH   9  12
ENDBRANCH   6   8
BRANCH   1  20
ATOM     20  S   LIG    1      165.720 143.163 150.908  0.00  0.00    +0.062 S 
ATOM     21  O   LIG    1      164.945 142.522 149.902  0.00  0.00    -0.153 OA
ATOM     22  O   LIG    1      166.260 142.309 151.909  0.00  0.00    -0.153 OA
BRANCH  20  23
ATOM     23  N   LIG    1      164.791 144.337 151.633  0.00  0.00    -0.177 NA
BRANCH  23  25
ATOM     24  C   LIG    1      163.683 145.782 150.003  0.00  0.00    +0.022 C 
ATOM     25  C   LIG    1      163.475 144.726 151.098  0.00  0.00    +0.106 C 
ENDBRANCH  23  25
BRANCH  23  26
ATOM     26  C   LIG    1      164.920 144.526 153.080  0.00  0.00    +0.106 C 
ATOM     27  C   LIG    1      165.495 145.938 153.234  0.00  0.00    +0.022 C 
ENDBRANCH  23  26
ENDBRANCH  20  23
ENDBRANCH   1  20
TORSDOF 7
