MODEL 1
REMARK VINA RESULT:      -8.6      0.000      0.000
REMARK  Name = ZINC000006083766
REMARK                            x       y       z     vdW  Elec       q    Type
REMARK                         _______ _______ _______ _____ _____    ______ ____
ROOT
ATOM      1  O   LIG    1      167.647 151.617 145.377  0.00  0.00    -0.468 OA
ENDROOT
BRANCH   1   2
ATOM      2  C   LIG    1      166.505 151.864 146.067  0.00  0.00    +0.227 A 
ATOM      3  C   LIG    1      166.575 152.361 147.380  0.00  0.00    +0.073 A 
ATOM      4  C   LIG    1      167.676 152.693 148.221  0.00  0.00    -0.023 A 
ATOM      5  C   LIG    1      169.139 152.557 147.824  0.00  0.00    +0.037 C 
ATOM      6  C   LIG    1      169.996 153.324 148.849  0.00  0.00    +0.005 C 
ATOM      7  C   LIG    1      169.579 153.005 150.295  0.00  0.00    +0.005 C 
ATOM      8  C   LIG    1      168.171 153.549 150.596  0.00  0.00    +0.043 C 
ATOM      9  C   LIG    1      167.275 153.117 149.455  0.00  0.00    -0.004 A 
ATOM     10  S   LIG    1      165.547 153.154 149.621  0.00  0.00    -0.073 S 
ATOM     11  C   LIG    1      165.356 152.567 148.005  0.00  0.00    +0.116 A 
ATOM     12  N   LIG    1      164.171 152.319 147.397  0.00  0.00    -0.228 NA
ATOM     13  C   LIG    1      164.209 151.861 146.170  0.00  0.00    +0.226 A 
ATOM     14  N   LIG    1      165.355 151.620 145.477  0.00  0.00    -0.201 NA
ENDBRANCH   1   2
BRANCH   1  15
ATOM     15  C   LIG    1      167.882 150.368 144.666  0.00  0.00    +0.310 C 
BRANCH  15  17
ATOM     16  O   LIG    1      170.190 150.884 144.848  0.00  0.00    -0.288 OA
ATOM     17  C   LIG    1      169.358 149.999 144.791  0.00  0.00    +0.200 C 
BRANCH  17  18
ATOM     18  C   LIG    1      169.762 148.597 144.892  0.00  0.00    +0.025 A 
ATOM     19  C   LIG    1      168.827 147.549 144.769  0.00  0.00    +0.061 A 
ATOM     20  C   LIG    1      169.249 146.232 144.869  0.00  0.00    +0.163 A 
ATOM     21  O   LIG    1      168.330 145.215 144.722  0.00  0.00    -0.485 OA
ATOM     22  C   LIG    1      168.833 143.867 144.469  0.00  0.00    +0.270 C 
ATOM     23  C   LIG    1      169.958 143.610 145.484  0.00  0.00    +0.270 C 
ATOM     24  O   LIG    1      170.986 144.618 145.245  0.00  0.00    -0.485 OA
ATOM     25  C   LIG    1      170.592 145.928 145.112  0.00  0.00    +0.162 A 
ATOM     26  C   LIG    1      171.530 146.946 145.227  0.00  0.00    +0.050 A 
ATOM     27  C   LIG    1      171.115 148.270 145.119  0.00  0.00    +0.015 A 
ENDBRANCH  17  18
ENDBRANCH  15  17
ENDBRANCH   1  15
TORSDOF 4
ENDMDL
MODEL 2
REMARK VINA RESULT:      -8.1      4.616      7.957
REMARK  Name = ZINC000006083766
REMARK                            x       y       z     vdW  Elec       q    Type
REMARK                         _______ _______ _______ _____ _____    ______ ____
ROOT
ATOM      1  O   LIG    1      169.416 143.252 144.972  0.00  0.00    -0.468 OA
ENDROOT
BRANCH   1   2
ATOM      2  C   LIG    1      168.266 143.189 145.690  0.00  0.00    +0.227 A 
ATOM      3  C   LIG    1      168.315 142.903 147.065  0.00  0.00    +0.073 A 
ATOM      4  C   LIG    1      169.399 142.639 147.950  0.00  0.00    -0.023 A 
ATOM      5  C   LIG    1      170.865 142.611 147.539  0.00  0.00    +0.037 C 
ATOM      6  C   LIG    1      171.730 142.637 148.812  0.00  0.00    +0.005 C 
ATOM      7  C   LIG    1      171.227 141.633 149.864  0.00  0.00    +0.005 C 
ATOM      8  C   LIG    1      169.852 142.052 150.413  0.00  0.00    +0.043 C 
ATOM      9  C   LIG    1      168.977 142.373 149.220  0.00  0.00    -0.004 A 
ATOM     10  S   LIG    1      167.251 142.463 149.384  0.00  0.00    -0.073 S 
ATOM     11  C   LIG    1      167.088 142.847 147.706  0.00  0.00    +0.116 A 
ATOM     12  N   LIG    1      165.915 143.064 147.063  0.00  0.00    -0.228 NA
ATOM     13  C   LIG    1      165.974 143.330 145.781  0.00  0.00    +0.226 A 
ATOM     14  N   LIG    1      167.128 143.398 145.063  0.00  0.00    -0.201 NA
ENDBRANCH   1   2
BRANCH   1  15
ATOM     15  C   LIG    1      169.527 144.003 143.729  0.00  0.00    +0.310 C 
BRANCH  15  17
ATOM     16  O   LIG    1      171.713 144.337 142.869  0.00  0.00    -0.288 OA
ATOM     17  C   LIG    1      170.887 144.693 143.689  0.00  0.00    +0.200 C 
BRANCH  17  18
ATOM     18  C   LIG    1      171.178 145.804 144.595  0.00  0.00    +0.025 A 
ATOM     19  C   LIG    1      170.660 147.095 144.369  0.00  0.00    +0.061 A 
ATOM     20  C   LIG    1      170.957 148.123 145.252  0.00  0.00    +0.163 A 
ATOM     21  O   LIG    1      170.424 149.376 145.034  0.00  0.00    -0.485 OA
ATOM     22  C   LIG    1      170.443 150.330 146.140  0.00  0.00    +0.270 C 
ATOM     23  C   LIG    1      171.860 150.300 146.735  0.00  0.00    +0.270 C 
ATOM     24  O   LIG    1      172.097 148.937 147.201  0.00  0.00    -0.485 OA
ATOM     25  C   LIG    1      171.783 147.899 146.358  0.00  0.00    +0.162 A 
ATOM     26  C   LIG    1      172.296 146.632 146.603  0.00  0.00    +0.050 A 
ATOM     27  C   LIG    1      171.995 145.593 145.726  0.00  0.00    +0.015 A 
ENDBRANCH  17  18
ENDBRANCH  15  17
ENDBRANCH   1  15
TORSDOF 4
ENDMDL
MODEL 3
REMARK VINA RESULT:      -7.9      5.826      8.708
REMARK  Name = ZINC000006083766
REMARK                            x       y       z     vdW  Elec       q    Type
REMARK                         _______ _______ _______ _____ _____    ______ ____
ROOT
ATOM      1  O   LIG    1      166.439 144.944 146.559  0.00  0.00    -0.468 OA
ENDROOT
BRANCH   1   2
ATOM      2  C   LIG    1      167.443 145.493 145.829  0.00  0.00    +0.227 A 
ATOM      3  C   LIG    1      168.763 145.044 146.008  0.00  0.00    +0.073 A 
ATOM      4  C   LIG    1      169.331 144.054 146.861  0.00  0.00    -0.023 A 
ATOM      5  C   LIG    1      168.540 143.206 147.847  0.00  0.00    +0.037 C 
ATOM      6  C   LIG    1      169.435 142.044 148.317  0.00  0.00    +0.005 C 
ATOM      7  C   LIG    1      170.842 142.528 148.706  0.00  0.00    +0.005 C 
ATOM      8  C   LIG    1      171.611 143.033 147.473  0.00  0.00    +0.043 C 
ATOM      9  C   LIG    1      170.686 143.971 146.726  0.00  0.00    -0.004 A 
ATOM     10  S   LIG    1      171.309 145.073 145.538  0.00  0.00    -0.073 S 
ATOM     11  C   LIG    1      169.718 145.675 145.228  0.00  0.00    +0.116 A 
ATOM     12  N   LIG    1      169.410 146.652 144.341  0.00  0.00    -0.228 NA
ATOM     13  C   LIG    1      168.149 146.998 144.243  0.00  0.00    +0.226 A 
ATOM     14  N   LIG    1      167.143 146.443 144.970  0.00  0.00    -0.201 NA
ENDBRANCH   1   2
BRANCH   1  15
ATOM     15  C   LIG    1      165.534 143.937 146.019  0.00  0.00    +0.310 C 
BRANCH  15  17
ATOM     16  O   LIG    1      163.370 143.182 146.630  0.00  0.00    -0.288 OA
ATOM     17  C   LIG    1      164.394 143.719 147.009  0.00  0.00    +0.200 C 
BRANCH  17  18
ATOM     18  C   LIG    1      164.551 144.105 148.412  0.00  0.00    +0.025 A 
ATOM     19  C   LIG    1      165.238 143.287 149.330  0.00  0.00    +0.061 A 
ATOM     20  C   LIG    1      165.366 143.687 150.652  0.00  0.00    +0.163 A 
ATOM     21  O   LIG    1      166.064 142.891 151.535  0.00  0.00    -0.485 OA
ATOM     22  C   LIG    1      166.496 143.483 152.798  0.00  0.00    +0.270 C 
ATOM     23  C   LIG    1      165.285 144.229 153.382  0.00  0.00    +0.270 C 
ATOM     24  O   LIG    1      164.908 145.253 152.412  0.00  0.00    -0.485 OA
ATOM     25  C   LIG    1      164.803 144.889 151.092  0.00  0.00    +0.162 A 
ATOM     26  C   LIG    1      164.129 145.714 150.200  0.00  0.00    +0.050 A 
ATOM     27  C   LIG    1      164.004 145.322 148.870  0.00  0.00    +0.015 A 
ENDBRANCH  17  18
ENDBRANCH  15  17
ENDBRANCH   1  15
TORSDOF 4
ENDMDL
MODEL 4
REMARK VINA RESULT:      -7.8      6.250      9.070
REMARK  Name = ZINC000006083766
REMARK                            x       y       z     vdW  Elec       q    Type
REMARK                         _______ _______ _______ _____ _____    ______ ____
ROOT
ATOM      1  O   LIG    1      166.532 143.807 147.249  0.00  0.00    -0.468 OA
ENDROOT
BRANCH   1   2
ATOM      2  C   LIG    1      167.383 144.516 146.466  0.00  0.00    +0.227 A 
ATOM      3  C   LIG    1      168.766 144.277 146.542  0.00  0.00    +0.073 A 
ATOM      4  C   LIG    1      169.540 143.378 147.331  0.00  0.00    -0.023 A 
ATOM      5  C   LIG    1      168.964 142.403 148.348  0.00  0.00    +0.037 C 
ATOM      6  C   LIG    1      170.060 141.389 148.727  0.00  0.00    +0.005 C 
ATOM      7  C   LIG    1      171.399 142.083 149.030  0.00  0.00    +0.005 C 
ATOM      8  C   LIG    1      171.990 142.719 147.760  0.00  0.00    +0.043 C 
ATOM      9  C   LIG    1      170.879 143.510 147.101  0.00  0.00    -0.004 A 
ATOM     10  S   LIG    1      171.237 144.711 145.900  0.00  0.00    -0.073 S 
ATOM     11  C   LIG    1      169.554 145.060 145.714  0.00  0.00    +0.116 A 
ATOM     12  N   LIG    1      169.035 145.988 144.874  0.00  0.00    -0.228 NA
ATOM     13  C   LIG    1      167.732 146.134 144.871  0.00  0.00    +0.226 A 
ATOM     14  N   LIG    1      166.878 145.418 145.652  0.00  0.00    -0.201 NA
ENDBRANCH   1   2
BRANCH   1  15
ATOM     15  C   LIG    1      165.401 144.418 147.935  0.00  0.00    +0.310 C 
BRANCH  15  17
ATOM     16  O   LIG    1      164.080 143.035 149.338  0.00  0.00    -0.288 OA
ATOM     17  C   LIG    1      165.127 143.643 149.220  0.00  0.00    +0.200 C 
BRANCH  17  18
ATOM     18  C   LIG    1      166.135 143.592 150.280  0.00  0.00    +0.025 A 
ATOM     19  C   LIG    1      166.310 142.444 151.078  0.00  0.00    +0.061 A 
ATOM     20  C   LIG    1      167.276 142.433 152.072  0.00  0.00    +0.163 A 
ATOM     21  O   LIG    1      167.455 141.294 152.828  0.00  0.00    -0.485 OA
ATOM     22  C   LIG    1      168.689 141.172 153.601  0.00  0.00    +0.270 C 
ATOM     23  C   LIG    1      168.890 142.505 154.340  0.00  0.00    +0.270 C 
ATOM     24  O   LIG    1      168.999 143.544 153.321  0.00  0.00    -0.485 OA
ATOM     25  C   LIG    1      168.071 143.559 152.308  0.00  0.00    +0.162 A 
ATOM     26  C   LIG    1      167.921 144.698 151.527  0.00  0.00    +0.050 A 
ATOM     27  C   LIG    1      166.958 144.713 150.521  0.00  0.00    +0.015 A 
ENDBRANCH  17  18
ENDBRANCH  15  17
ENDBRANCH   1  15
TORSDOF 4
ENDMDL
MODEL 5
REMARK VINA RESULT:      -7.7      5.720      7.637
REMARK  Name = ZINC000006083766
REMARK                            x       y       z     vdW  Elec       q    Type
REMARK                         _______ _______ _______ _____ _____    ______ ____
ROOT
ATOM      1  O   LIG    1      165.731 143.428 148.103  0.00  0.00    -0.468 OA
ENDROOT
BRANCH   1   2
ATOM      2  C   LIG    1      165.982 143.059 149.385  0.00  0.00    +0.227 A 
ATOM      3  C   LIG    1      165.448 143.811 150.446  0.00  0.00    +0.073 A 
ATOM      4  C   LIG    1      164.632 144.978 150.477  0.00  0.00    -0.023 A 
ATOM      5  C   LIG    1      164.128 145.715 149.244  0.00  0.00    +0.037 C 
ATOM      6  C   LIG    1      163.020 146.692 149.678  0.00  0.00    +0.005 C 
ATOM      7  C   LIG    1      163.428 147.502 150.921  0.00  0.00    +0.005 C 
ATOM      8  C   LIG    1      163.544 146.594 152.157  0.00  0.00    +0.043 C 
ATOM      9  C   LIG    1      164.374 145.394 151.751  0.00  0.00    -0.004 A 
ATOM     10  S   LIG    1      165.093 144.365 152.950  0.00  0.00    -0.073 S 
ATOM     11  C   LIG    1      165.772 143.362 151.716  0.00  0.00    +0.116 A 
ATOM     12  N   LIG    1      166.541 142.268 151.932  0.00  0.00    -0.228 NA
ATOM     13  C   LIG    1      166.987 141.630 150.877  0.00  0.00    +0.226 A 
ATOM     14  N   LIG    1      166.730 141.997 149.593  0.00  0.00    -0.201 NA
ENDBRANCH   1   2
BRANCH   1  15
ATOM     15  C   LIG    1      166.589 143.041 146.991  0.00  0.00    +0.310 C 
BRANCH  15  17
ATOM     16  O   LIG    1      165.383 144.000 145.187  0.00  0.00    -0.288 OA
ATOM     17  C   LIG    1      166.401 144.039 145.853  0.00  0.00    +0.200 C 
BRANCH  17  18
ATOM     18  C   LIG    1      167.412 145.066 145.597  0.00  0.00    +0.025 A 
ATOM     19  C   LIG    1      168.648 145.069 146.274  0.00  0.00    +0.061 A 
ATOM     20  C   LIG    1      169.582 146.058 146.004  0.00  0.00    +0.163 A 
ATOM     21  O   LIG    1      170.798 146.035 146.653  0.00  0.00    -0.485 OA
ATOM     22  C   LIG    1      171.883 146.845 146.104  0.00  0.00    +0.270 C 
ATOM     23  C   LIG    1      171.302 148.240 145.820  0.00  0.00    +0.270 C 
ATOM     24  O   LIG    1      170.225 148.063 144.851  0.00  0.00    -0.485 OA
ATOM     25  C   LIG    1      169.303 147.070 145.079  0.00  0.00    +0.162 A 
ATOM     26  C   LIG    1      168.094 147.080 144.396  0.00  0.00    +0.050 A 
ATOM     27  C   LIG    1      167.156 146.085 144.656  0.00  0.00    +0.015 A 
ENDBRANCH  17  18
ENDBRANCH  15  17
ENDBRANCH   1  15
TORSDOF 4
ENDMDL
MODEL 6
REMARK VINA RESULT:      -7.6      2.728      3.938
REMARK  Name = ZINC000006083766
REMARK                            x       y       z     vdW  Elec       q    Type
REMARK                         _______ _______ _______ _____ _____    ______ ____
ROOT
ATOM      1  O   LIG    1      169.755 148.050 147.223  0.00  0.00    -0.468 OA
ENDROOT
BRANCH   1   2
ATOM      2  C   LIG    1      169.287 149.195 146.665  0.00  0.00    +0.227 A 
ATOM      3  C   LIG    1      168.300 149.944 147.329  0.00  0.00    +0.073 A 
ATOM      4  C   LIG    1      167.623 149.749 148.567  0.00  0.00    -0.023 A 
ATOM      5  C   LIG    1      167.856 148.574 149.506  0.00  0.00    +0.037 C 
ATOM      6  C   LIG    1      167.205 148.899 150.864  0.00  0.00    +0.005 C 
ATOM      7  C   LIG    1      165.780 149.453 150.697  0.00  0.00    +0.005 C 
ATOM      8  C   LIG    1      165.802 150.836 150.024  0.00  0.00    +0.043 C 
ATOM      9  C   LIG    1      166.700 150.726 148.810  0.00  0.00    -0.004 A 
ATOM     10  S   LIG    1      166.647 151.923 147.555  0.00  0.00    -0.073 S 
ATOM     11  C   LIG    1      167.877 151.088 146.673  0.00  0.00    +0.116 A 
ATOM     12  N   LIG    1      168.382 151.474 145.476  0.00  0.00    -0.228 NA
ATOM     13  C   LIG    1      169.303 150.711 144.938  0.00  0.00    +0.226 A 
ATOM     14  N   LIG    1      169.776 149.567 145.502  0.00  0.00    -0.201 NA
ENDBRANCH   1   2
BRANCH   1  15
ATOM     15  C   LIG    1      171.148 147.881 147.619  0.00  0.00    +0.310 C 
BRANCH  15  17
ATOM     16  O   LIG    1      172.886 146.798 146.423  0.00  0.00    -0.288 OA
ATOM     17  C   LIG    1      171.745 146.716 146.835  0.00  0.00    +0.200 C 
BRANCH  17  18
ATOM     18  C   LIG    1      170.969 145.493 146.625  0.00  0.00    +0.025 A 
ATOM     19  C   LIG    1      170.185 145.305 145.469  0.00  0.00    +0.061 A 
ATOM     20  C   LIG    1      169.465 144.132 145.306  0.00  0.00    +0.163 A 
ATOM     21  O   LIG    1      168.723 143.949 144.158  0.00  0.00    -0.485 OA
ATOM     22  C   LIG    1      168.277 142.595 143.838  0.00  0.00    +0.270 C 
ATOM     23  C   LIG    1      167.677 142.005 145.125  0.00  0.00    +0.270 C 
ATOM     24  O   LIG    1      168.739 141.996 146.125  0.00  0.00    -0.485 OA
ATOM     25  C   LIG    1      169.489 143.136 146.287  0.00  0.00    +0.162 A 
ATOM     26  C   LIG    1      170.261 143.298 147.430  0.00  0.00    +0.050 A 
ATOM     27  C   LIG    1      170.994 144.470 147.596  0.00  0.00    +0.015 A 
ENDBRANCH  17  18
ENDBRANCH  15  17
ENDBRANCH   1  15
TORSDOF 4
ENDMDL
MODEL 7
REMARK VINA RESULT:      -7.5     15.698     17.269
REMARK  Name = ZINC000006083766
REMARK                            x       y       z     vdW  Elec       q    Type
REMARK                         _______ _______ _______ _____ _____    ______ ____
ROOT
ATOM      1  O   LIG    1      164.342 161.133 157.158  0.00  0.00    -0.468 OA
ENDROOT
BRANCH   1   2
ATOM      2  C   LIG    1      163.304 160.848 156.332  0.00  0.00    +0.227 A 
ATOM      3  C   LIG    1      163.008 161.708 155.260  0.00  0.00    +0.073 A 
ATOM      4  C   LIG    1      163.608 162.919 154.810  0.00  0.00    -0.023 A 
ATOM      5  C   LIG    1      164.806 163.588 155.468  0.00  0.00    +0.037 C 
ATOM      6  C   LIG    1      165.357 164.658 154.507  0.00  0.00    +0.005 C 
ATOM      7  C   LIG    1      164.235 165.535 153.925  0.00  0.00    +0.005 C 
ATOM      8  C   LIG    1      163.324 164.718 152.993  0.00  0.00    +0.043 C 
ATOM      9  C   LIG    1      162.962 163.445 153.729  0.00  0.00    -0.004 A 
ATOM     10  S   LIG    1      161.623 162.470 153.209  0.00  0.00    -0.073 S 
ATOM     11  C   LIG    1      161.922 161.339 154.482  0.00  0.00    +0.116 A 
ATOM     12  N   LIG    1      161.196 160.221 154.723  0.00  0.00    -0.228 NA
ATOM     13  C   LIG    1      161.554 159.481 155.744  0.00  0.00    +0.226 A 
ATOM     14  N   LIG    1      162.598 159.764 156.568  0.00  0.00    -0.201 NA
ENDBRANCH   1   2
BRANCH   1  15
ATOM     15  C   LIG    1      165.087 160.102 157.869  0.00  0.00    +0.310 C 
BRANCH  15  17
ATOM     16  O   LIG    1      164.039 161.075 159.761  0.00  0.00    -0.288 OA
ATOM     17  C   LIG    1      164.885 160.294 159.369  0.00  0.00    +0.200 C 
BRANCH  17  18
ATOM     18  C   LIG    1      165.667 159.509 160.325  0.00  0.00    +0.025 A 
ATOM     19  C   LIG    1      165.604 159.759 161.711  0.00  0.00    +0.061 A 
ATOM     20  C   LIG    1      166.360 158.993 162.586  0.00  0.00    +0.163 A 
ATOM     21  O   LIG    1      166.270 159.230 163.941  0.00  0.00    -0.485 OA
ATOM     22  C   LIG    1      166.773 158.203 164.851  0.00  0.00    +0.270 C 
ATOM     23  C   LIG    1      168.160 157.786 164.334  0.00  0.00    +0.270 C 
ATOM     24  O   LIG    1      167.971 157.259 162.986  0.00  0.00    -0.485 OA
ATOM     25  C   LIG    1      167.202 157.984 162.108  0.00  0.00    +0.162 A 
ATOM     26  C   LIG    1      167.271 157.716 160.747  0.00  0.00    +0.050 A 
ATOM     27  C   LIG    1      166.509 158.476 159.863  0.00  0.00    +0.015 A 
ENDBRANCH  17  18
ENDBRANCH  15  17
ENDBRANCH   1  15
TORSDOF 4
ENDMDL
MODEL 8
REMARK VINA RESULT:      -7.5      3.845      7.882
REMARK  Name = ZINC000006083766
REMARK                            x       y       z     vdW  Elec       q    Type
REMARK                         _______ _______ _______ _____ _____    ______ ____
ROOT
ATOM      1  O   LIG    1      170.468 148.827 146.075  0.00  0.00    -0.468 OA
ENDROOT
BRANCH   1   2
ATOM      2  C   LIG    1      170.705 147.648 145.447  0.00  0.00    +0.227 A 
ATOM      3  C   LIG    1      170.535 146.439 146.144  0.00  0.00    +0.073 A 
ATOM      4  C   LIG    1      170.136 146.152 147.481  0.00  0.00    -0.023 A 
ATOM      5  C   LIG    1      169.781 147.204 148.522  0.00  0.00    +0.037 C 
ATOM      6  C   LIG    1      169.082 146.505 149.703  0.00  0.00    +0.005 C 
ATOM      7  C   LIG    1      169.836 145.239 150.144  0.00  0.00    +0.005 C 
ATOM      8  C   LIG    1      169.772 144.152 149.057  0.00  0.00    +0.043 C 
ATOM      9  C   LIG    1      170.140 144.813 147.746  0.00  0.00    -0.004 A 
ATOM     10  S   LIG    1      170.603 143.861 146.370  0.00  0.00    -0.073 S 
ATOM     11  C   LIG    1      170.815 145.290 145.421  0.00  0.00    +0.116 A 
ATOM     12  N   LIG    1      171.215 145.319 144.127  0.00  0.00    -0.228 NA
ATOM     13  C   LIG    1      171.339 146.495 143.563  0.00  0.00    +0.226 A 
ATOM     14  N   LIG    1      171.096 147.677 144.191  0.00  0.00    -0.201 NA
ENDBRANCH   1   2
BRANCH   1  15
ATOM     15  C   LIG    1      170.283 150.079 145.353  0.00  0.00    +0.310 C 
BRANCH  15  17
ATOM     16  O   LIG    1      168.152 149.761 144.359  0.00  0.00    -0.288 OA
ATOM     17  C   LIG    1      168.788 150.351 145.212  0.00  0.00    +0.200 C 
BRANCH  17  18
ATOM     18  C   LIG    1      168.117 151.276 146.127  0.00  0.00    +0.025 A 
ATOM     19  C   LIG    1      168.777 151.809 147.252  0.00  0.00    +0.061 A 
ATOM     20  C   LIG    1      168.108 152.684 148.095  0.00  0.00    +0.163 A 
ATOM     21  O   LIG    1      168.772 153.219 149.178  0.00  0.00    -0.485 OA
ATOM     22  C   LIG    1      168.189 154.390 149.829  0.00  0.00    +0.270 C 
ATOM     23  C   LIG    1      166.697 154.090 150.041  0.00  0.00    +0.270 C 
ATOM     24  O   LIG    1      166.116 153.867 148.721  0.00  0.00    -0.485 OA
ATOM     25  C   LIG    1      166.774 153.029 147.854  0.00  0.00    +0.162 A 
ATOM     26  C   LIG    1      166.109 152.521 146.746  0.00  0.00    +0.050 A 
ATOM     27  C   LIG    1      166.778 151.649 145.890  0.00  0.00    +0.015 A 
ENDBRANCH  17  18
ENDBRANCH  15  17
ENDBRANCH   1  15
TORSDOF 4
ENDMDL
MODEL 9
REMARK VINA RESULT:      -7.5     73.561     77.826
REMARK  Name = ZINC000006083766
REMARK                            x       y       z     vdW  Elec       q    Type
REMARK                         _______ _______ _______ _____ _____    ______ ____
ROOT
ATOM      1  O   LIG    1      203.420  79.731 151.547  0.00  0.00    -0.468 OA
ENDROOT
BRANCH   1   2
ATOM      2  C   LIG    1      203.282  78.420 151.868  0.00  0.00    +0.227 A 
ATOM      3  C   LIG    1      203.439  78.007 153.202  0.00  0.00    +0.073 A 
ATOM      4  C   LIG    1      203.738  78.722 154.398  0.00  0.00    -0.023 A 
ATOM      5  C   LIG    1      203.972  80.224 154.471  0.00  0.00    +0.037 C 
ATOM      6  C   LIG    1      203.921  80.654 155.949  0.00  0.00    +0.005 C 
ATOM      7  C   LIG    1      204.755  79.721 156.844  0.00  0.00    +0.005 C 
ATOM      8  C   LIG    1      204.132  78.316 156.907  0.00  0.00    +0.043 C 
ATOM      9  C   LIG    1      203.830  77.899 155.483  0.00  0.00    -0.004 A 
ATOM     10  S   LIG    1      203.529  76.236 155.089  0.00  0.00    -0.073 S 
ATOM     11  C   LIG    1      203.293  76.647 153.427  0.00  0.00    +0.116 A 
ATOM     12  N   LIG    1      203.007  75.769 152.436  0.00  0.00    -0.228 NA
ATOM     13  C   LIG    1      202.875  76.252 151.224  0.00  0.00    +0.226 A 
ATOM     14  N   LIG    1      203.007  77.567 150.904  0.00  0.00    -0.201 NA
ENDBRANCH   1   2
BRANCH   1  15
ATOM     15  C   LIG    1      202.402  80.473 150.815  0.00  0.00    +0.310 C 
BRANCH  15  17
ATOM     16  O   LIG    1      201.132  81.354 152.614  0.00  0.00    -0.288 OA
ATOM     17  C   LIG    1      201.889  81.607 151.696  0.00  0.00    +0.200 C 
BRANCH  17  18
ATOM     18  C   LIG    1      202.343  82.980 151.470  0.00  0.00    +0.025 A 
ATOM     19  C   LIG    1      203.574  83.443 151.977  0.00  0.00    +0.061 A 
ATOM     20  C   LIG    1      203.970  84.751 151.741  0.00  0.00    +0.163 A 
ATOM     21  O   LIG    1      205.188  85.184 152.219  0.00  0.00    -0.485 OA
ATOM     22  C   LIG    1      205.743  86.417 151.664  0.00  0.00    +0.270 C 
ATOM     23  C   LIG    1      204.613  87.459 151.667  0.00  0.00    +0.270 C 
ATOM     24  O   LIG    1      203.543  86.929 150.828  0.00  0.00    -0.485 OA
ATOM     25  C   LIG    1      203.151  85.627 151.021  0.00  0.00    +0.162 A 
ATOM     26  C   LIG    1      201.938  85.187 150.506  0.00  0.00    +0.050 A 
ATOM     27  C   LIG    1      201.538  83.873 150.732  0.00  0.00    +0.015 A 
ENDBRANCH  17  18
ENDBRANCH  15  17
ENDBRANCH   1  15
TORSDOF 4
ENDMDL
