REMARK VINA RESULT:      -6.3     46.499     50.903
REMARK  Name = ZINC000000623204
REMARK                            x       y       z     vdW  Elec       q    Type
REMARK                         _______ _______ _______ _____ _____    ______ ____
ROOT
ATOM      1  C   LIG    1      202.297 114.200 145.097  0.00  0.00    +0.124 A 
ATOM      2  C   LIG    1      201.603 113.246 145.856  0.00  0.00    +0.067 A 
ATOM      3 CL   LIG    1      199.908 112.940 145.642  0.00  0.00    -0.082 Cl
ATOM      4  C   LIG    1      202.267 112.514 146.845  0.00  0.00    +0.023 A 
ATOM      5  C   LIG    1      203.615 112.729 147.092  0.00  0.00    +0.014 A 
ATOM      6  C   LIG    1      204.332 113.680 146.350  0.00  0.00    +0.039 A 
ATOM      7  C   LIG    1      203.653 114.406 145.361  0.00  0.00    +0.043 A 
ENDROOT
BRANCH   6   8
ATOM      8  C   LIG    1      205.752 113.933 146.591  0.00  0.00    +0.245 C 
ATOM      9  N   LIG    1      206.601 112.880 146.766  0.00  0.00    -0.305 N 
ATOM     10  H   LIG    1      206.241 111.921 146.728  0.00  0.00    +0.150 HD
ATOM     11  O   LIG    1      206.234 115.058 146.633  0.00  0.00    -0.270 OA
BRANCH   9  12
ATOM     12  C   LIG    1      208.007 113.032 147.080  0.00  0.00    +0.100 C 
ATOM     13  C   LIG    1      208.810 112.512 145.880  0.00  0.00    +0.033 C 
BRANCH  12  14
ATOM     14  C   LIG    1      208.270 112.146 148.290  0.00  0.00    -0.027 A 
ATOM     15  C   LIG    1      209.541 111.631 148.570  0.00  0.00    +0.005 A 
ATOM     16  C   LIG    1      209.742 110.814 149.680  0.00  0.00    +0.000 A 
ATOM     17  C   LIG    1      208.678 110.503 150.518  0.00  0.00    +0.000 A 
ATOM     18  C   LIG    1      207.412 111.009 150.247  0.00  0.00    +0.000 A 
ATOM     19  C   LIG    1      207.210 111.826 149.139  0.00  0.00    +0.005 A 
ENDBRANCH  12  14
ENDBRANCH   9  12
ENDBRANCH   6   8
BRANCH   1  20
ATOM     20  S   LIG    1      201.480 115.144 143.801  0.00  0.00    +0.062 S 
ATOM     21  O   LIG    1      200.948 114.231 142.850  0.00  0.00    -0.153 OA
ATOM     22  O   LIG    1      200.543 116.031 144.397  0.00  0.00    -0.153 OA
BRANCH  20  23
ATOM     23  N   LIG    1      202.688 116.029 143.076  0.00  0.00    -0.177 NA
BRANCH  23  25
ATOM     24  C   LIG    1      204.283 114.842 141.655  0.00  0.00    +0.022 C 
ATOM     25  C   LIG    1      203.084 115.801 141.676  0.00  0.00    +0.106 C 
ENDBRANCH  23  25
BRANCH  23  26
ATOM     26  C   LIG    1      202.912 117.401 143.538  0.00  0.00    +0.106 C 
ATOM     27  C   LIG    1      202.731 118.264 142.287  0.00  0.00    +0.022 C 
ENDBRANCH  23  26
ENDBRANCH  20  23
ENDBRANCH   1  20
TORSDOF 7
