REMARK VINA RESULT:      -7.1      3.649      7.641
REMARK  Name = ZINC000186872603
REMARK                            x       y       z     vdW  Elec       q    Type
REMARK                         _______ _______ _______ _____ _____    ______ ____
ROOT
ATOM      1  N   LIG    1      168.487 146.057 146.695  0.00  0.00    -0.297 N 
ATOM      2  C   LIG    1      168.177 144.673 146.248  0.00  0.00    +0.123 C 
ATOM      3  C   LIG    1      166.786 144.282 146.808  0.00  0.00    +0.103 C 
ATOM      4  N   LIG    1      166.774 144.369 148.297  0.00  0.00    -0.299 NA
ATOM      5  C   LIG    1      167.077 145.776 148.710  0.00  0.00    +0.103 C 
ATOM      6  C   LIG    1      168.453 146.249 148.169  0.00  0.00    +0.123 C 
ENDROOT
BRANCH   1  10
ATOM      7  C   LIG    1      171.527 146.289 143.027  0.00  0.00    +0.066 C 
ATOM      8  C   LIG    1      170.841 146.947 144.199  0.00  0.00    +0.044 A 
ATOM      9  N   LIG    1      169.996 146.234 144.913  0.00  0.00    -0.220 NA
ATOM     10  C   LIG    1      169.381 146.815 145.951  0.00  0.00    +0.218 A 
ATOM     11  N   LIG    1      169.581 148.088 146.310  0.00  0.00    -0.219 NA
ATOM     12  C   LIG    1      170.422 148.831 145.610  0.00  0.00    +0.049 A 
ATOM     13  C   LIG    1      171.081 148.273 144.524  0.00  0.00    +0.046 A 
BRANCH  12  14
ATOM     14  C   LIG    1      170.659 150.286 146.003  0.00  0.00    +0.032 C 
ATOM     15  C   LIG    1      170.874 151.124 144.733  0.00  0.00    +0.014 C 
ATOM     16  C   LIG    1      171.887 150.368 146.924  0.00  0.00    +0.014 C 
ENDBRANCH  12  14
ENDBRANCH   1  10
BRANCH   4  17
ATOM     17  C   LIG    1      167.626 143.342 148.933  0.00  0.00    +0.085 C 
BRANCH  17  18
ATOM     18  C   LIG    1      166.649 142.453 149.724  0.00  0.00    +0.025 C 
BRANCH  18  19
ATOM     19  C   LIG    1      166.488 143.041 151.139  0.00  0.00    +0.097 C 
BRANCH  19  20
ATOM     20  C   LIG    1      165.281 143.954 151.149  0.00  0.00    +0.197 A 
ATOM     21  O   LIG    1      165.376 145.166 151.760  0.00  0.00    -0.440 OA
ATOM     22  C   LIG    1      164.174 145.726 151.593  0.00  0.00    +0.155 A 
ATOM     23  C   LIG    1      163.712 146.971 152.017  0.00  0.00    +0.048 A 
ATOM     24  C   LIG    1      162.400 147.311 151.704  0.00  0.00    +0.004 A 
ATOM     25  C   LIG    1      161.583 146.413 150.986  0.00  0.00    +0.002 A 
ATOM     26  C   LIG    1      162.076 145.176 150.577  0.00  0.00    +0.031 A 
ATOM     27  C   LIG    1      163.395 144.840 150.891  0.00  0.00    +0.110 A 
ATOM     28  N   LIG    1      164.138 143.714 150.621  0.00  0.00    -0.213 NA
ENDBRANCH  19  20
ENDBRANCH  18  19
ENDBRANCH  17  18
ENDBRANCH   4  17
TORSDOF 6
