REMARK VINA RESULT:      -6.9      3.657      9.584
REMARK  Name = ZINC000049399659
REMARK                            x       y       z     vdW  Elec       q    Type
REMARK                         _______ _______ _______ _____ _____    ______ ____
ROOT
ATOM      1  C   LIG    1      165.264 160.484 157.764  0.00  0.00    +0.173 C 
ENDROOT
BRANCH   1   4
ATOM      2  N   LIG    1      166.065 158.465 158.919  0.00  0.00    -0.282 N 
ATOM      3  H   LIG    1      166.718 158.431 158.122  0.00  0.00    +0.155 HD
ATOM      4  C   LIG    1      165.113 159.452 158.861  0.00  0.00    +0.228 C 
ATOM      5  O   LIG    1      164.191 159.484 159.649  0.00  0.00    -0.275 OA
BRANCH   2   7
ATOM      6  C   LIG    1      167.073 157.656 160.944  0.00  0.00    +0.141 A 
ATOM      7  C   LIG    1      166.231 157.400 159.850  0.00  0.00    +0.077 A 
ATOM      8  C   LIG    1      165.594 156.163 159.729  0.00  0.00    +0.047 A 
ATOM      9  C   LIG    1      165.818 155.184 160.698  0.00  0.00    +0.043 A 
ATOM     10 CL   LIG    1      165.040 153.644 160.562  0.00  0.00    -0.083 Cl
ATOM     11  C   LIG    1      166.665 155.433 161.782  0.00  0.00    +0.024 A 
ATOM     12  C   LIG    1      167.292 156.671 161.908  0.00  0.00    +0.049 A 
BRANCH   6  14
ATOM     13  C   LIG    1      168.470 159.371 162.156  0.00  0.00    +0.277 C 
ATOM     14  O   LIG    1      167.673 158.914 161.039  0.00  0.00    -0.493 OA
ENDBRANCH   6  14
ENDBRANCH   2   7
ENDBRANCH   1   4
BRANCH   1  15
ATOM     15  S   LIG    1      164.495 162.025 158.393  0.00  0.00    -0.077 S 
BRANCH  15  16
ATOM     16  C   LIG    1      163.056 162.147 157.430  0.00  0.00    +0.190 A 
ATOM     17  N   LIG    1      163.178 162.616 156.187  0.00  0.00    -0.207 NA
ATOM     18  C   LIG    1      162.086 162.708 155.448  0.00  0.00    +0.126 A 
ATOM     19  C   LIG    1      160.845 162.326 155.947  0.00  0.00    +0.063 A 
ATOM     20  C   LIG    1      160.784 161.856 157.241  0.00  0.00    +0.117 A 
ATOM     21  N   LIG    1      161.884 161.771 157.977  0.00  0.00    -0.230 NA
BRANCH  18  22
ATOM     22  N   LIG    1      162.199 163.193 154.150  0.00  0.00    -0.315 N 
ATOM     23  C   LIG    1      163.445 163.915 153.831  0.00  0.00    +0.106 C 
ATOM     24  C   LIG    1      163.096 164.887 152.689  0.00  0.00    +0.019 C 
ATOM     25  C   LIG    1      162.608 164.055 151.490  0.00  0.00    +0.003 C 
ATOM     26  C   LIG    1      161.353 163.259 151.887  0.00  0.00    +0.019 C 
ATOM     27  C   LIG    1      161.721 162.321 153.052  0.00  0.00    +0.106 C 
ENDBRANCH  18  22
ENDBRANCH  15  16
ENDBRANCH   1  15
TORSDOF 6
