REMARK VINA RESULT:      -7.4      3.347      8.601
REMARK  Name = ZINC000049483826
REMARK                            x       y       z     vdW  Elec       q    Type
REMARK                         _______ _______ _______ _____ _____    ______ ____
ROOT
ATOM      1  N   LIG    1      168.386 151.380 148.408  0.00  0.00    -0.175 NA
ATOM      2  C   LIG    1      169.696 150.864 148.819  0.00  0.00    +0.123 C 
ATOM      3  C   LIG    1      170.015 150.738 147.308  0.00  0.00    +0.109 C 
ATOM      4  C   LIG    1      168.488 150.833 147.051  0.00  0.00    +0.123 C 
ENDROOT
BRANCH   3   5
ATOM      5  C   LIG    1      170.586 149.389 146.943  0.00  0.00    +0.233 A 
ATOM      6  O   LIG    1      171.421 149.296 145.931  0.00  0.00    -0.337 OA
ATOM      7  N   LIG    1      171.777 148.035 145.811  0.00  0.00    -0.056 NA
ATOM      8  C   LIG    1      171.150 147.412 146.750  0.00  0.00    +0.209 A 
ATOM      9  N   LIG    1      170.384 148.259 147.484  0.00  0.00    -0.191 NA
BRANCH   8  10
ATOM     10  C   LIG    1      171.252 145.978 146.990  0.00  0.00    +0.060 A 
ATOM     11  S   LIG    1      170.137 145.141 148.029  0.00  0.00    -0.093 S 
ATOM     12  C   LIG    1      170.936 143.637 147.751  0.00  0.00    +0.046 A 
ATOM     13  C   LIG    1      172.000 143.777 146.906  0.00  0.00    +0.008 A 
ATOM     14  C   LIG    1      172.179 145.100 146.475  0.00  0.00    +0.019 A 
ENDBRANCH   8  10
ENDBRANCH   3   5
BRANCH   1  15
ATOM     15  S   LIG    1      167.914 152.923 148.715  0.00  0.00    +0.061 S 
ATOM     16  O   LIG    1      168.952 153.591 149.419  0.00  0.00    -0.153 OA
ATOM     17  O   LIG    1      167.512 153.508 147.482  0.00  0.00    -0.153 OA
BRANCH  15  20
ATOM     18  C   LIG    1      166.171 155.299 149.973  0.00  0.00    +0.046 C 
ATOM     19  C   LIG    1      165.756 153.872 150.296  0.00  0.00    -0.024 A 
ATOM     20  C   LIG    1      166.459 152.761 149.789  0.00  0.00    +0.110 A 
ATOM     21  C   LIG    1      166.019 151.475 150.121  0.00  0.00    +0.048 A 
ATOM     22  C   LIG    1      164.909 151.292 150.943  0.00  0.00    +0.043 A 
ATOM     23 CL   LIG    1      164.390 149.690 151.346  0.00  0.00    -0.083 Cl
ATOM     24  C   LIG    1      164.220 152.392 151.441  0.00  0.00    +0.020 A 
ATOM     25  C   LIG    1      164.644 153.674 151.116  0.00  0.00    +0.007 A 
ENDBRANCH  15  20
ENDBRANCH   1  15
TORSDOF 4
