REMARK VINA RESULT:      -7.3     43.305     46.345
REMARK  Name = ZINC000186872603
REMARK                            x       y       z     vdW  Elec       q    Type
REMARK                         _______ _______ _______ _____ _____    ______ ____
ROOT
ATOM      1  N   LIG    1      203.297 114.801 145.720  0.00  0.00    -0.297 N 
ATOM      2  C   LIG    1      202.123 114.533 146.592  0.00  0.00    +0.123 C 
ATOM      3  C   LIG    1      200.844 114.964 145.830  0.00  0.00    +0.103 C 
ATOM      4  N   LIG    1      200.911 116.410 145.466  0.00  0.00    -0.299 NA
ATOM      5  C   LIG    1      202.095 116.640 144.580  0.00  0.00    +0.103 C 
ATOM      6  C   LIG    1      203.419 116.213 145.270  0.00  0.00    +0.123 C 
ENDROOT
BRANCH   1  10
ATOM      7  C   LIG    1      205.529 111.314 148.090  0.00  0.00    +0.066 C 
ATOM      8  C   LIG    1      205.548 112.405 147.047  0.00  0.00    +0.044 A 
ATOM      9  N   LIG    1      204.451 113.106 146.852  0.00  0.00    -0.220 NA
ATOM     10  C   LIG    1      204.460 114.070 145.923  0.00  0.00    +0.218 A 
ATOM     11  N   LIG    1      205.531 114.368 145.178  0.00  0.00    -0.219 NA
ATOM     12  C   LIG    1      206.647 113.679 145.350  0.00  0.00    +0.049 A 
ATOM     13  C   LIG    1      206.684 112.668 146.298  0.00  0.00    +0.046 A 
BRANCH  12  14
ATOM     14  C   LIG    1      207.877 114.003 144.506  0.00  0.00    +0.032 C 
ATOM     15  C   LIG    1      207.782 115.454 144.011  0.00  0.00    +0.014 C 
ATOM     16  C   LIG    1      207.950 113.026 143.322  0.00  0.00    +0.014 C 
ENDBRANCH  12  14
ENDBRANCH   1  10
BRANCH   4  17
ATOM     17  C   LIG    1      200.841 117.296 146.647  0.00  0.00    +0.085 C 
BRANCH  17  18
ATOM     18  C   LIG    1      199.339 117.414 146.963  0.00  0.00    +0.025 C 
BRANCH  18  19
ATOM     19  C   LIG    1      199.086 118.773 147.644  0.00  0.00    +0.097 C 
BRANCH  19  20
ATOM     20  C   LIG    1      197.645 119.172 147.405  0.00  0.00    +0.197 A 
ATOM     21  O   LIG    1      196.962 118.594 146.380  0.00  0.00    -0.440 OA
ATOM     22  C   LIG    1      195.742 119.136 146.436  0.00  0.00    +0.155 A 
ATOM     23  C   LIG    1      194.633 118.906 145.624  0.00  0.00    +0.048 A 
ATOM     24  C   LIG    1      193.469 119.613 145.907  0.00  0.00    +0.004 A 
ATOM     25  C   LIG    1      193.434 120.527 146.981  0.00  0.00    +0.002 A 
ATOM     26  C   LIG    1      194.561 120.734 147.775  0.00  0.00    +0.031 A 
ATOM     27  C   LIG    1      195.727 120.020 147.488  0.00  0.00    +0.110 A 
ATOM     28  N   LIG    1      196.964 120.015 148.088  0.00  0.00    -0.213 NA
ENDBRANCH  19  20
ENDBRANCH  18  19
ENDBRANCH  17  18
ENDBRANCH   4  17
TORSDOF 6
