REMARK VINA RESULT:      -5.9     52.591     54.394
REMARK  Name = ZINC000000622877
REMARK                            x       y       z     vdW  Elec       q    Type
REMARK                         _______ _______ _______ _____ _____    ______ ____
ROOT
ATOM      1  O   LIG    1      167.514 118.710 183.608  0.00  0.00    -0.274 OA
ATOM      2  C   LIG    1      166.932 118.858 182.545  0.00  0.00    +0.235 C 
ATOM      3  N   LIG    1      166.388 117.784 181.911  0.00  0.00    -0.219 N 
ATOM      4  H   LIG    1      165.740 117.911 181.116  0.00  0.00    +0.176 HD
ENDROOT
BRANCH   3   5
ATOM      5  N   LIG    1      166.471 116.425 182.478  0.00  0.00    -0.217 N 
ATOM      6  C   LIG    1      165.471 115.886 183.306  0.00  0.00    +0.079 A 
ATOM      7  C   LIG    1      165.707 114.570 183.535  0.00  0.00    +0.078 A 
ATOM      8  S   LIG    1      167.160 113.993 182.785  0.00  0.00    -0.033 S 
ATOM      9  C   LIG    1      167.481 115.563 182.117  0.00  0.00    +0.308 A 
ATOM     10  O   LIG    1      168.469 115.899 181.429  0.00  0.00    -0.258 OA
BRANCH   6  11
ATOM     11  C   LIG    1      164.369 116.694 183.810  0.00  0.00    +0.001 A 
ATOM     12  C   LIG    1      164.468 117.362 185.038  0.00  0.00    +0.010 A 
ATOM     13  C   LIG    1      163.409 118.125 185.520  0.00  0.00    +0.001 A 
ATOM     14  C   LIG    1      162.236 118.233 184.781  0.00  0.00    +0.000 A 
ATOM     15  C   LIG    1      162.124 117.577 183.559  0.00  0.00    +0.001 A 
ATOM     16  C   LIG    1      163.182 116.815 183.079  0.00  0.00    +0.010 A 
ENDBRANCH   6  11
ENDBRANCH   3   5
BRANCH   2  17
ATOM     17  C   LIG    1      166.780 120.220 181.895  0.00  0.00    +0.132 C 
BRANCH  17  18
ATOM     18  C   LIG    1      165.657 120.962 182.606  0.00  0.00    -0.039 A 
ATOM     19  C   LIG    1      165.913 122.160 183.273  0.00  0.00    +0.005 A 
ATOM     20  C   LIG    1      164.880 122.845 183.906  0.00  0.00    +0.015 A 
ATOM     21  C   LIG    1      163.584 122.338 183.879  0.00  0.00    +0.018 A 
ATOM     22 BR   LIG    1      162.181 123.273 184.738  0.00  0.00    -0.050 Br
ATOM     23  C   LIG    1      163.325 121.142 183.217  0.00  0.00    +0.015 A 
ATOM     24  C   LIG    1      164.357 120.455 182.585  0.00  0.00    +0.005 A 
ENDBRANCH  17  18
ENDBRANCH   2  17
TORSDOF 4
