REMARK VINA RESULT:      -7.2     30.449     35.480
REMARK  Name = 
REMARK                            x       y       z     vdW  Elec       q    Type
REMARK                         _______ _______ _______ _____ _____    ______ ____
ROOT
ATOM      1  C   LIG    1      177.106 172.206 174.113  0.00  0.00    +0.072 C 
ATOM      2  C   LIG    1      178.023 173.165 173.231  0.00  0.00    +0.070 C 
ATOM      3  N   LIG    1      177.590 174.491 173.906  0.00  0.00    -0.269 NA
ATOM      4  C   LIG    1      176.668 175.163 173.177  0.00  0.00    +0.073 C 
ATOM      5  C   LIG    1      175.919 174.112 172.342  0.00  0.00    +0.024 C 
ATOM      6  C   LIG    1      177.209 174.332 175.246  0.00  0.00    +0.099 C 
ATOM      7  C   LIG    1      175.808 173.743 175.180  0.00  0.00    -0.013 C 
ATOM      8  C   LIG    1      177.049 173.430 171.957  0.00  0.00    +0.055 C 
ATOM      9  C   LIG    1      176.921 172.106 171.106  0.00  0.00    +0.127 C 
ATOM     10  C   LIG    1      176.267 171.115 172.157  0.00  0.00    +0.268 C 
ATOM     11  O   LIG    1      175.084 171.582 172.582  0.00  0.00    -0.209 OA
ATOM     12  N   LIG    1      178.377 171.806 171.088  0.00  0.00    -0.250 N 
ATOM     13  C   LIG    1      179.052 170.686 171.397  0.00  0.00    +0.307 C 
ATOM     14  O   LIG    1      180.282 170.510 171.336  0.00  0.00    -0.265 OA
ATOM     15  C   LIG    1      178.864 173.080 170.616  0.00  0.00    +0.053 A 
ATOM     16  C   LIG    1      179.946 173.292 169.797  0.00  0.00    +0.051 A 
ATOM     17  C   LIG    1      180.224 174.613 169.434  0.00  0.00    +0.137 A 
ATOM     18  C   LIG    1      179.462 175.653 169.872  0.00  0.00    +0.026 A 
ATOM     19  C   LIG    1      178.387 175.365 170.695  0.00  0.00    -0.003 A 
ATOM     20  C   LIG    1      178.058 174.085 171.091  0.00  0.00    -0.006 A 
ATOM     21  C   LIG    1      177.292 170.775 173.325  0.00  0.00    +0.213 C 
ATOM     22  C   LIG    1      175.886 172.582 174.537  0.00  0.00    -0.025 C 
ENDROOT
BRANCH  18  23
ATOM     23  C   LIG    1      179.848 177.028 169.478  0.00  0.00    +0.146 C 
ATOM     24  C   LIG    1      178.769 178.019 169.733  0.00  0.00    +0.068 A 
ATOM     25  C   LIG    1      178.894 179.353 169.491  0.00  0.00    -0.005 A 
ATOM     26  C   LIG    1      177.670 179.951 169.854  0.00  0.00    +0.015 A 
ATOM     27  C   LIG    1      176.831 178.951 170.311  0.00  0.00    +0.081 A 
ATOM     28  C   LIG    1      175.549 179.296 170.733  0.00  0.00    +0.019 A 
ATOM     29  C   LIG    1      175.091 180.595 170.711  0.00  0.00    +0.002 A 
ATOM     30  C   LIG    1      175.918 181.588 170.259  0.00  0.00    +0.000 A 
ATOM     31  C   LIG    1      177.179 181.240 169.846  0.00  0.00    +0.001 A 
ATOM     32  C   LIG    1      180.031 180.106 168.964  0.00  0.00    +0.045 C 
ATOM     33  C   LIG    1      179.870 180.832 167.699  0.00  0.00    +0.077 C 
ATOM     34  N   LIG    1      180.019 180.094 166.488  0.00  0.00    -0.270 NA
ATOM     35  C   LIG    1      181.369 179.992 165.973  0.00  0.00    +0.103 C 
ATOM     36  C   LIG    1      181.652 178.711 165.243  0.00  0.00    +0.141 C 
ATOM     37  C   LIG    1      181.439 177.456 166.102  0.00  0.00    +0.033 C 
ATOM     38  C   LIG    1      180.889 178.146 167.455  0.00  0.00    +0.020 C 
ATOM     39  O   LIG    1      183.033 178.738 164.935  0.00  0.00    -0.224 OA
ATOM     40  C   LIG    1      179.561 178.759 166.687  0.00  0.00    +0.072 C 
ATOM     41  N   LIG    1      177.514 177.823 170.225  0.00  0.00    -0.249 NA
ATOM     42  C   LIG    1      180.069 176.888 167.996  0.00  0.00    +0.022 C 
BRANCH  36  43
ATOM     43  C   LIG    1      180.881 178.555 163.978  0.00  0.00    +0.032 C 
ATOM     44  C   LIG    1      181.142 179.733 163.075  0.00  0.00    +0.003 C 
ENDBRANCH  36  43
BRANCH  23  45
ATOM     45  C   LIG    1      180.988 177.440 170.285  0.00  0.00    +0.325 C 
ATOM     46  O   LIG    1      180.723 177.711 171.522  0.00  0.00    -0.249 OA
BRANCH  45  47
ATOM     47  O   LIG    1      182.305 177.598 169.977  0.00  0.00    -0.444 OA
ATOM     48  C   LIG    1      183.353 176.996 170.713  0.00  0.00    +0.256 C 
ENDBRANCH  45  47
ENDBRANCH  23  45
ENDBRANCH  18  23
BRANCH   1  50
ATOM     49  C   LIG    1      179.065 171.571 175.058  0.00  0.00    +0.001 C 
ATOM     50  C   LIG    1      178.062 171.943 175.305  0.00  0.00    +0.009 C 
ENDBRANCH   1  50
BRANCH  10  51
ATOM     51  C   LIG    1      175.939 169.954 171.313  0.00  0.00    +0.350 C 
ATOM     52  O   LIG    1      176.221 168.753 171.537  0.00  0.00    -0.247 OA
BRANCH  51  53
ATOM     53  O   LIG    1      175.235 170.114 170.106  0.00  0.00    -0.443 OA
ATOM     54  C   LIG    1      175.465 169.321 168.974  0.00  0.00    +0.256 C 
ENDBRANCH  51  53
ENDBRANCH  10  51
BRANCH  17  55
ATOM     55  O   LIG    1      181.346 174.781 168.583  0.00  0.00    -0.472 OA
ATOM     56  C   LIG    1      182.505 174.000 168.718  0.00  0.00    +0.252 C 
ENDBRANCH  17  55
BRANCH  21  57
ATOM     57  O   LIG    1      176.298 170.086 174.241  0.00  0.00    -0.449 OA
BRANCH  57  58
ATOM     58  C   LIG    1      176.732 168.897 174.740  0.00  0.00    +0.318 C 
ATOM     59  O   LIG    1      177.728 168.216 174.475  0.00  0.00    -0.250 OA
ATOM     60  C   LIG    1      175.859 168.269 175.815  0.00  0.00    +0.121 C 
ENDBRANCH  57  58
ENDBRANCH  21  57
TORSDOF 10
