REMARK VINA RESULT:      -8.3     45.680     50.313
REMARK  Name = ZINC000049410085
REMARK                            x       y       z     vdW  Elec       q    Type
REMARK                         _______ _______ _______ _____ _____    ______ ____
ROOT
ATOM      1  C   LIG    1      201.760 114.050 144.855  0.00  0.00    +0.247 C 
ATOM      2  N   LIG    1      202.453 113.265 145.773  0.00  0.00    -0.297 N 
ATOM      3  C   LIG    1      203.278 113.862 146.836  0.00  0.00    +0.112 C 
ATOM      4  C   LIG    1      204.709 113.864 146.272  0.00  0.00    +0.064 C 
ATOM      5  C   LIG    1      205.114 112.422 145.911  0.00  0.00    +0.102 C 
ATOM      6  N   LIG    1      206.406 112.461 145.288  0.00  0.00    -0.290 N 
ATOM      7  H   LIG    1      206.468 112.817 144.331  0.00  0.00    +0.151 HD
ATOM      8  C   LIG    1      207.557 112.486 145.998  0.00  0.00    +0.247 C 
ATOM      9  O   LIG    1      208.543 112.853 145.377  0.00  0.00    -0.270 OA
ATOM     10  C   LIG    1      207.535 112.106 147.396  0.00  0.00    +0.058 A 
ATOM     11  C   LIG    1      208.662 112.164 148.229  0.00  0.00    +0.016 A 
ATOM     12  C   LIG    1      208.573 111.783 149.562  0.00  0.00    +0.021 A 
ATOM     13  C   LIG    1      207.350 111.332 150.078  0.00  0.00    +0.043 A 
ATOM     14 CL   LIG    1      207.247 110.857 151.743  0.00  0.00    -0.083 Cl
ATOM     15  C   LIG    1      206.220 111.264 149.267  0.00  0.00    +0.043 A 
ATOM     16  C   LIG    1      206.319 111.657 147.934  0.00  0.00    +0.042 A 
ATOM     17  N   LIG    1      205.197 111.596 147.108  0.00  0.00    -0.323 N 
ATOM     18  H   LIG    1      204.296 111.467 147.582  0.00  0.00    +0.148 HD
ATOM     19  C   LIG    1      204.136 111.791 144.910  0.00  0.00    +0.064 C 
ATOM     20  C   LIG    1      202.713 111.841 145.492  0.00  0.00    +0.112 C 
ATOM     21  O   LIG    1      201.531 113.562 143.753  0.00  0.00    -0.270 OA
ENDROOT
BRANCH   1  25
ATOM     22  C   LIG    1      199.839 117.282 148.156  0.00  0.00    +0.044 C 
ATOM     23  C   LIG    1      200.408 116.984 146.785  0.00  0.00    -0.049 A 
ATOM     24  C   LIG    1      200.821 115.696 146.459  0.00  0.00    +0.016 A 
ATOM     25  C   LIG    1      201.354 115.416 145.196  0.00  0.00    +0.037 A 
ATOM     26  C   LIG    1      201.494 116.459 144.271  0.00  0.00    +0.016 A 
ATOM     27  C   LIG    1      201.084 117.750 144.589  0.00  0.00    -0.049 A 
ATOM     28  C   LIG    1      201.243 118.875 143.589  0.00  0.00    +0.044 C 
ATOM     29  C   LIG    1      200.544 118.006 145.848  0.00  0.00    +0.006 A 
ENDBRANCH   1  25
TORSDOF 1
