REMARK VINA RESULT:      -6.6      4.312      5.837
REMARK  Name = ZINC000193545175
REMARK                            x       y       z     vdW  Elec       q    Type
REMARK                         _______ _______ _______ _____ _____    ______ ____
ROOT
ATOM      1  C   LIG    1      170.045 146.735 144.955  0.00  0.00    +0.171 A 
ATOM      2  N   LIG    1      170.396 146.126 146.130  0.00  0.00    -0.204 NA
ATOM      3  C   LIG    1      170.749 144.917 145.870  0.00  0.00    +0.185 A 
ATOM      4  S   LIG    1      170.666 144.497 144.211  0.00  0.00    +0.050 S 
ATOM      5  N   LIG    1      170.135 146.014 143.866  0.00  0.00    -0.187 NA
ENDROOT
BRANCH   1   8
ATOM      6  C   LIG    1      170.001 150.498 145.274  0.00  0.00    +0.121 A 
ATOM      7  C   LIG    1      170.441 149.177 145.314  0.00  0.00    +0.057 A 
ATOM      8  C   LIG    1      169.591 148.132 144.918  0.00  0.00    +0.023 A 
ATOM      9  C   LIG    1      168.293 148.466 144.487  0.00  0.00    +0.012 A 
ATOM     10  C   LIG    1      167.862 149.789 144.451  0.00  0.00    +0.004 A 
ATOM     11  C   LIG    1      168.717 150.812 144.845  0.00  0.00    +0.045 A 
BRANCH   6  13
ATOM     12  C   LIG    1      171.985 151.433 146.486  0.00  0.00    +0.277 C 
ATOM     13  O   LIG    1      170.808 151.548 145.654  0.00  0.00    -0.495 OA
ENDBRANCH   6  13
ENDBRANCH   1   8
BRANCH   3  14
ATOM     14  N   LIG    1      171.152 144.097 146.925  0.00  0.00    -0.259 N 
ATOM     15  H   LIG    1      171.973 144.433 147.435  0.00  0.00    +0.157 HD
ATOM     16  C   LIG    1      170.588 142.930 147.365  0.00  0.00    +0.254 C 
ATOM     17  O   LIG    1      169.593 142.521 146.785  0.00  0.00    -0.270 OA
BRANCH  16  18
ATOM     18  C   LIG    1      171.173 142.228 148.498  0.00  0.00    +0.089 A 
ATOM     19  C   LIG    1      170.575 141.677 149.600  0.00  0.00    +0.182 A 
ATOM     20 BR   LIG    1      168.780 141.560 150.180  0.00  0.00    -0.008 Br
ATOM     21  O   LIG    1      171.511 141.122 150.397  0.00  0.00    -0.456 OA
ATOM     22  C   LIG    1      172.718 141.315 149.815  0.00  0.00    +0.197 A 
ATOM     23  C   LIG    1      172.551 141.987 148.657  0.00  0.00    +0.055 A 
ENDBRANCH  16  18
ENDBRANCH   3  14
TORSDOF 4
