REMARK VINA RESULT:      -6.1      5.052      6.713
REMARK  Name = ZINC000049409419
REMARK                            x       y       z     vdW  Elec       q    Type
REMARK                         _______ _______ _______ _____ _____    ______ ____
ROOT
ATOM      1  N   LIG    1      165.369 149.140 150.046  0.00  0.00    -0.282 N 
ATOM      2  H   LIG    1      165.659 149.359 149.078  0.00  0.00    +0.155 HD
ATOM      3  C   LIG    1      165.110 150.222 150.850  0.00  0.00    +0.226 C 
ATOM      4  O   LIG    1      164.604 150.083 151.943  0.00  0.00    -0.275 OA
ENDROOT
BRANCH   1   9
ATOM      5  C   LIG    1      165.036 145.010 150.777  0.00  0.00    +0.142 A 
ATOM      6  C   LIG    1      163.860 145.754 150.580  0.00  0.00    +0.084 A 
ATOM      7 CL   LIG    1      162.304 144.993 150.638  0.00  0.00    -0.080 Cl
ATOM      8  C   LIG    1      163.935 147.125 150.336  0.00  0.00    +0.050 A 
ATOM      9  C   LIG    1      165.186 147.747 150.286  0.00  0.00    +0.077 A 
ATOM     10  C   LIG    1      166.357 147.000 150.496  0.00  0.00    +0.145 A 
ATOM     11  C   LIG    1      166.287 145.628 150.739  0.00  0.00    +0.094 A 
BRANCH   5  13
ATOM     12  C   LIG    1      165.840 142.622 150.566  0.00  0.00    +0.277 C 
ATOM     13  O   LIG    1      164.923 143.643 151.016  0.00  0.00    -0.494 OA
ENDBRANCH   5  13
BRANCH  10  14
ATOM     14  O   LIG    1      167.580 147.673 150.462  0.00  0.00    -0.493 OA
ATOM     15  C   LIG    1      168.566 147.564 149.410  0.00  0.00    +0.277 C 
ENDBRANCH  10  14
ENDBRANCH   1   9
BRANCH   3  16
ATOM     16  C   LIG    1      165.457 151.584 150.310  0.00  0.00    +0.193 C 
BRANCH  16  17
ATOM     17  C   LIG    1      165.980 151.324 148.924  0.00  0.00    +0.226 A 
ATOM     18  O   LIG    1      167.257 151.374 148.671  0.00  0.00    -0.419 OA
ATOM     19  C   LIG    1      167.375 151.117 147.386  0.00  0.00    +0.255 A 
ATOM     20  N   LIG    1      166.206 150.916 146.864  0.00  0.00    -0.107 NA
ATOM     21  N   LIG    1      165.299 151.055 147.876  0.00  0.00    -0.112 NA
BRANCH  19  22
ATOM     22  C   LIG    1      168.688 151.088 146.759  0.00  0.00    +0.079 A 
ATOM     23  C   LIG    1      169.017 150.878 145.430  0.00  0.00    -0.031 A 
ATOM     24  C   LIG    1      168.011 150.626 144.327  0.00  0.00    +0.045 C 
ATOM     25  C   LIG    1      170.400 150.919 145.198  0.00  0.00    +0.012 A 
ATOM     26  C   LIG    1      171.129 151.158 146.327  0.00  0.00    +0.046 A 
ATOM     27  S   LIG    1      170.120 151.338 147.711  0.00  0.00    -0.092 S 
ENDBRANCH  19  22
ENDBRANCH  16  17
ENDBRANCH   3  16
TORSDOF 6
