REMARK VINA RESULT:      -6.4     38.817     41.258
REMARK  Name = ZINC000049409419
REMARK                            x       y       z     vdW  Elec       q    Type
REMARK                         _______ _______ _______ _____ _____    ______ ____
ROOT
ATOM      1  N   LIG    1      184.712 112.896 148.014  0.00  0.00    -0.282 N 
ATOM      2  H   LIG    1      184.080 112.580 148.769  0.00  0.00    +0.155 HD
ATOM      3  C   LIG    1      184.186 113.812 147.138  0.00  0.00    +0.226 C 
ATOM      4  O   LIG    1      184.886 114.373 146.323  0.00  0.00    -0.275 OA
ENDROOT
BRANCH   1   9
ATOM      5  C   LIG    1      188.676 111.566 148.496  0.00  0.00    +0.142 A 
ATOM      6  C   LIG    1      187.799 110.796 147.711  0.00  0.00    +0.084 A 
ATOM      7 CL   LIG    1      188.333 109.329 146.957  0.00  0.00    -0.080 Cl
ATOM      8  C   LIG    1      186.479 111.208 147.532  0.00  0.00    +0.050 A 
ATOM      9  C   LIG    1      186.040 112.391 148.135  0.00  0.00    +0.077 A 
ATOM     10  C   LIG    1      186.917 113.149 148.928  0.00  0.00    +0.145 A 
ATOM     11  C   LIG    1      188.239 112.742 149.108  0.00  0.00    +0.094 A 
BRANCH   5  13
ATOM     12  C   LIG    1      191.058 111.852 149.290  0.00  0.00    +0.277 C 
ATOM     13  O   LIG    1      189.986 111.124 148.651  0.00  0.00    -0.494 OA
ENDBRANCH   5  13
BRANCH  10  14
ATOM     14  O   LIG    1      186.423 114.309 149.529  0.00  0.00    -0.493 OA
ATOM     15  C   LIG    1      186.434 114.585 150.949  0.00  0.00    +0.277 C 
ENDBRANCH  10  14
ENDBRANCH   1   9
BRANCH   3  16
ATOM     16  C   LIG    1      182.713 114.106 147.248  0.00  0.00    +0.193 C 
BRANCH  16  17
ATOM     17  C   LIG    1      182.047 113.033 146.432  0.00  0.00    +0.226 A 
ATOM     18  O   LIG    1      181.780 111.868 146.950  0.00  0.00    -0.419 OA
ATOM     19  C   LIG    1      181.220 111.169 145.985  0.00  0.00    +0.255 A 
ATOM     20  N   LIG    1      181.147 111.882 144.906  0.00  0.00    -0.107 NA
ATOM     21  N   LIG    1      181.691 113.099 145.206  0.00  0.00    -0.112 NA
BRANCH  19  22
ATOM     22  C   LIG    1      180.787 109.800 146.224  0.00  0.00    +0.079 A 
ATOM     23  C   LIG    1      180.640 109.127 147.425  0.00  0.00    -0.031 A 
ATOM     24  C   LIG    1      180.918 109.731 148.786  0.00  0.00    +0.045 C 
ATOM     25  C   LIG    1      180.200 107.805 147.259  0.00  0.00    +0.012 A 
ATOM     26  C   LIG    1      180.009 107.462 145.951  0.00  0.00    +0.046 A 
ATOM     27  S   LIG    1      180.371 108.768 144.889  0.00  0.00    -0.092 S 
ENDBRANCH  19  22
ENDBRANCH  16  17
ENDBRANCH   3  16
TORSDOF 6
