REMARK VINA RESULT:      -6.6      4.581      7.526
REMARK  Name = ZINC000000623420
REMARK                            x       y       z     vdW  Elec       q    Type
REMARK                         _______ _______ _______ _____ _____    ______ ____
ROOT
ATOM      1  C   LIG    1      169.029 149.721 146.331  0.00  0.00    +0.102 A 
ATOM      2  C   LIG    1      170.164 149.215 145.713  0.00  0.00    -0.014 A 
ATOM      3  C   LIG    1      170.885 149.929 144.576  0.00  0.00    +0.046 C 
ATOM      4  C   LIG    1      170.591 147.964 146.244  0.00  0.00    +0.091 A 
ATOM      5  C   LIG    1      169.773 147.570 147.300  0.00  0.00    +0.087 A 
ATOM      6  S   LIG    1      168.508 148.685 147.628  0.00  0.00    -0.066 S 
ENDROOT
BRANCH   5   7
ATOM      7  N   LIG    1      169.945 146.401 148.069  0.00  0.00    -0.275 N 
ATOM      8  H   LIG    1      170.673 146.449 148.798  0.00  0.00    +0.156 HD
ATOM      9  C   LIG    1      169.306 145.178 147.976  0.00  0.00    +0.249 C 
ATOM     10  O   LIG    1      168.486 144.983 147.091  0.00  0.00    -0.270 OA
BRANCH   9  11
ATOM     11  C   LIG    1      169.695 144.171 148.966  0.00  0.00    +0.040 A 
ATOM     12  C   LIG    1      170.681 143.201 148.692  0.00  0.00    -0.038 A 
ATOM     13  C   LIG    1      171.404 143.165 147.356  0.00  0.00    +0.044 C 
ATOM     14  C   LIG    1      171.008 142.256 149.663  0.00  0.00    +0.004 A 
ATOM     15  C   LIG    1      170.366 142.257 150.898  0.00  0.00    +0.000 A 
ATOM     16  C   LIG    1      169.394 143.210 151.176  0.00  0.00    +0.001 A 
ATOM     17  C   LIG    1      169.063 144.162 150.220  0.00  0.00    +0.013 A 
ENDBRANCH   9  11
ENDBRANCH   5   7
BRANCH   1  18
ATOM     18  C   LIG    1      168.255 150.918 146.042  0.00  0.00    +0.346 C 
ATOM     19  O   LIG    1      167.265 150.971 145.320  0.00  0.00    -0.244 OA
BRANCH  18  20
ATOM     20  O   LIG    1      168.650 152.080 146.622  0.00  0.00    -0.461 OA
BRANCH  20  22
ATOM     21  C   LIG    1      170.842 152.877 146.930  0.00  0.00    +0.048 C 
ATOM     22  C   LIG    1      169.701 152.126 147.612  0.00  0.00    +0.229 C 
ENDBRANCH  20  22
ENDBRANCH  18  20
ENDBRANCH   1  18
BRANCH   4  23
ATOM     23  C   LIG    1      171.713 147.172 145.756  0.00  0.00    +0.342 C 
ATOM     24  O   LIG    1      172.745 146.947 146.377  0.00  0.00    -0.245 OA
BRANCH  23  25
ATOM     25  O   LIG    1      171.642 146.624 144.503  0.00  0.00    -0.461 OA
BRANCH  25  26
ATOM     26  C   LIG    1      171.280 145.241 144.241  0.00  0.00    +0.229 C 
ATOM     27  C   LIG    1      169.795 145.276 143.877  0.00  0.00    +0.048 C 
ENDBRANCH  25  26
ENDBRANCH  23  25
ENDBRANCH   4  23
TORSDOF 8
