REMARK VINA RESULT:      -6.5     40.002     44.818
REMARK  Name = 
REMARK                            x       y       z     vdW  Elec       q    Type
REMARK                         _______ _______ _______ _____ _____    ______ ____
ROOT
ATOM      1  C   LIG    1      199.875 115.238 144.062  0.00  0.00    +0.155 A 
ATOM      2  C   LIG    1      199.355 116.226 144.882  0.00  0.00    +0.054 A 
ATOM      3  C   LIG    1      199.823 116.416 146.166  0.00  0.00    +0.089 A 
ATOM      4  C   LIG    1      199.304 117.411 147.002  0.00  0.00    +0.059 A 
ATOM      5  C   LIG    1      198.296 118.228 146.539  0.00  0.00    +0.174 A 
ATOM      6  C   LIG    1      197.846 118.018 145.254  0.00  0.00    +0.173 A 
ATOM      7  N   LIG    1      200.806 115.618 146.617  0.00  0.00    -0.224 NA
ATOM      8  C   LIG    1      201.315 114.658 145.827  0.00  0.00    +0.200 A 
ATOM      9  C   LIG    1      198.345 117.051 144.431  0.00  0.00    +0.044 A 
ATOM     10  N   LIG    1      200.851 114.482 144.577  0.00  0.00    -0.207 NA
ENDROOT
BRANCH   1  11
ATOM     11  N   LIG    1      199.342 115.108 142.763  0.00  0.00    -0.194 NA
BRANCH  11  14
ATOM     12  C   LIG    1      196.623 113.181 141.107  0.00  0.00    +0.044 A 
ATOM     13  C   LIG    1      197.470 114.196 141.503  0.00  0.00    +0.025 A 
ATOM     14  C   LIG    1      198.502 114.012 142.397  0.00  0.00    +0.073 A 
ATOM     15  C   LIG    1      198.722 112.762 142.938  0.00  0.00    +0.017 A 
ATOM     16  C   LIG    1      197.889 111.731 142.560  0.00  0.00    +0.002 A 
ATOM     17  C   LIG    1      196.865 111.933 141.666  0.00  0.00    +0.008 A 
BRANCH  12  19
ATOM     18  C   LIG    1      194.650 113.567 139.365  0.00  0.00    -0.009 C 
ATOM     19  C   LIG    1      195.544 113.393 140.168  0.00  0.00    -0.051 C 
ENDBRANCH  12  19
ENDBRANCH  11  14
ENDBRANCH   1  11
BRANCH   6  20
ATOM     20  O   LIG    1      196.827 118.856 144.807  0.00  0.00    -0.470 OA
BRANCH  20  21
ATOM     21  C   LIG    1      195.516 118.438 144.556  0.00  0.00    +0.237 C 
BRANCH  21  22
ATOM     22  C   LIG    1      194.627 118.669 145.758  0.00  0.00    +0.189 C 
BRANCH  22  23
ATOM     23  O   LIG    1      194.768 120.002 146.191  0.00  0.00    -0.347 OA
ATOM     24  C   LIG    1      193.861 120.319 147.189  0.00  0.00    +0.174 C 
ENDBRANCH  22  23
ENDBRANCH  21  22
ENDBRANCH  20  21
ENDBRANCH   6  20
BRANCH   5  25
ATOM     25  O   LIG    1      197.744 119.243 147.345  0.00  0.00    -0.470 OA
BRANCH  25  26
ATOM     26  C   LIG    1      197.153 118.917 148.589  0.00  0.00    +0.237 C 
BRANCH  26  27
ATOM     27  C   LIG    1      197.335 120.125 149.495  0.00  0.00    +0.189 C 
BRANCH  27  28
ATOM     28  O   LIG    1      198.443 120.870 149.152  0.00  0.00    -0.347 OA
ATOM     29  C   LIG    1      198.959 121.527 150.264  0.00  0.00    +0.174 C 
ENDBRANCH  27  28
ENDBRANCH  26  27
ENDBRANCH  25  26
ENDBRANCH   5  25
TORSDOF 11
