REMARK VINA RESULT:      -6.3     65.935     68.805
REMARK  Name = 
REMARK                            x       y       z     vdW  Elec       q    Type
REMARK                         _______ _______ _______ _____ _____    ______ ____
ROOT
ATOM      1  O   LIG    1      189.089  87.137 156.983  0.00  0.00    -0.346 OA
ENDROOT
BRANCH   1   7
ATOM      2  C   LIG    1      190.917  82.964 160.461  0.00  0.00    +0.398 A 
ATOM      3  N   LIG    1      190.411  82.529 159.272  0.00  0.00    -0.128 NA
ATOM      4  C   LIG    1      189.870  83.537 158.600  0.00  0.00    +0.306 A 
ATOM      5  O   LIG    1      189.234  83.607 157.352  0.00  0.00    -0.445 OA
ATOM      6  C   LIG    1      188.690  84.849 156.948  0.00  0.00    +0.240 C 
ATOM      7  C   LIG    1      189.956  85.906 157.292  0.00  0.00    +0.182 C 
ATOM      8  C   LIG    1      189.540  85.951 158.924  0.00  0.00    +0.144 C 
ATOM      9  N   LIG    1      190.019  84.639 159.348  0.00  0.00    -0.272 N 
ATOM     10  C   LIG    1      190.655  84.305 160.484  0.00  0.00    +0.178 A 
BRANCH   2  12
ATOM     11  O   LIG    1      192.004  82.475 162.091  0.00  0.00    +0.043 OA
ATOM     12  N   LIG    1      191.576  82.165 161.455  0.00  0.00    +0.103 N 
ATOM     13  O   LIG    1      191.448  80.782 161.278  0.00  0.00    -0.575 OA
ENDBRANCH   2  12
ENDBRANCH   1   7
BRANCH   1  14
ATOM     14  C   LIG    1      189.894  88.186 157.428  0.00  0.00    +0.169 C 
BRANCH  14  15
ATOM     15  C   LIG    1      190.692  88.747 156.289  0.00  0.00    +0.007 A 
ATOM     16  C   LIG    1      192.054  88.951 156.406  0.00  0.00    +0.001 A 
ATOM     17  C   LIG    1      192.825  89.460 155.393  0.00  0.00    +0.037 A 
ATOM     18  C   LIG    1      192.211  89.789 154.185  0.00  0.00    +0.147 A 
ATOM     19  C   LIG    1      190.863  89.599 154.035  0.00  0.00    +0.037 A 
ATOM     20  C   LIG    1      190.116  89.082 155.081  0.00  0.00    +0.001 A 
BRANCH  18  21
ATOM     21  O   LIG    1      192.997  90.306 153.155  0.00  0.00    -0.404 OA
BRANCH  21  22
ATOM     22  C   LIG    1      193.821  89.401 152.418  0.00  0.00    +0.575 C 
ATOM     23  F   LIG    1      193.651  88.127 152.920  0.00  0.00    -0.133 F 
ATOM     24  F   LIG    1      195.161  89.744 152.570  0.00  0.00    -0.133 F 
ATOM     25  F   LIG    1      193.436  89.454 151.089  0.00  0.00    -0.133 F 
ENDBRANCH  21  22
ENDBRANCH  18  21
ENDBRANCH  14  15
ENDBRANCH   1  14
TORSDOF 6
