MODEL 1
REMARK VINA RESULT:      -8.7      0.000      0.000
REMARK  Name = ZINC000000622958
REMARK                            x       y       z     vdW  Elec       q    Type
REMARK                         _______ _______ _______ _____ _____    ______ ____
ROOT
ATOM      1  C   LIG    1      170.180 144.968 144.630  0.00  0.00    +0.271 C 
ATOM      2  N   LIG    1      170.818 145.322 145.873  0.00  0.00    -0.157 N 
ATOM      3  C   LIG    1      171.170 146.588 145.915  0.00  0.00    +0.250 C 
ATOM      4  C   LIG    1      171.869 147.266 147.085  0.00  0.00    +0.124 C 
ATOM      5  C   LIG    1      170.847 148.216 147.752  0.00  0.00    +0.012 C 
ATOM      6  C   LIG    1      170.727 149.512 146.927  0.00  0.00    +0.004 C 
ATOM      7  C   LIG    1      170.066 149.377 145.539  0.00  0.00    +0.045 C 
ATOM      8  C   LIG    1      171.010 148.637 144.571  0.00  0.00    +0.236 C 
ATOM      9  N   LIG    1      170.811 147.201 144.817  0.00  0.00    -0.258 N 
ATOM     10  C   LIG    1      170.060 146.325 143.890  0.00  0.00    +0.323 C 
ENDROOT
BRANCH   1  11
ATOM     11  C   LIG    1      168.810 144.323 144.867  0.00  0.00    +0.034 A 
ATOM     12  C   LIG    1      167.817 145.042 145.556  0.00  0.00    +0.060 A 
ATOM     13  C   LIG    1      166.586 144.445 145.770  0.00  0.00    +0.167 A 
ATOM     14  O   LIG    1      165.526 144.980 146.412  0.00  0.00    -0.453 OA
ATOM     15  C   LIG    1      164.461 143.945 146.374  0.00  0.00    +0.466 C 
ATOM     16  O   LIG    1      165.058 142.803 145.644  0.00  0.00    -0.453 OA
ATOM     17  C   LIG    1      166.315 143.177 145.324  0.00  0.00    +0.166 A 
ATOM     18  C   LIG    1      167.267 142.440 144.639  0.00  0.00    +0.050 A 
ATOM     19  C   LIG    1      168.519 143.019 144.413  0.00  0.00    +0.014 A 
ENDBRANCH   1  11
BRANCH   2  20
ATOM     20  C   LIG    1      170.974 144.402 146.943  0.00  0.00    +0.124 A 
ATOM     21  C   LIG    1      170.084 144.435 148.016  0.00  0.00    +0.050 A 
ATOM     22  C   LIG    1      170.239 143.519 149.053  0.00  0.00    +0.024 A 
ATOM     23  C   LIG    1      171.275 142.582 149.009  0.00  0.00    +0.041 A 
ATOM     24 CL   LIG    1      171.463 141.445 150.299  0.00  0.00    -0.084 Cl
ATOM     25  C   LIG    1      172.162 142.559 147.927  0.00  0.00    +0.024 A 
ATOM     26  C   LIG    1      172.013 143.472 146.888  0.00  0.00    +0.050 A 
ENDBRANCH   2  20
BRANCH   1  27
ATOM     27  O   LIG    1      171.089 144.113 143.950  0.00  0.00    -0.347 OA
ATOM     28  H   LIG    1      171.593 144.653 143.323  0.00  0.00    +0.215 HD
ENDBRANCH   1  27
TORSDOF 3
ENDMDL
MODEL 2
REMARK VINA RESULT:      -7.7     40.501     43.690
REMARK  Name = ZINC000000622958
REMARK                            x       y       z     vdW  Elec       q    Type
REMARK                         _______ _______ _______ _____ _____    ______ ____
ROOT
ATOM      1  C   LIG    1      202.234 116.287 144.361  0.00  0.00    +0.271 C 
ATOM      2  N   LIG    1      202.216 114.860 144.158  0.00  0.00    -0.157 N 
ATOM      3  C   LIG    1      203.352 114.290 144.492  0.00  0.00    +0.250 C 
ATOM      4  C   LIG    1      203.651 112.801 144.389  0.00  0.00    +0.124 C 
ATOM      5  C   LIG    1      203.712 112.237 145.828  0.00  0.00    +0.012 C 
ATOM      6  C   LIG    1      205.073 112.580 146.463  0.00  0.00    +0.004 C 
ATOM      7  C   LIG    1      205.323 114.071 146.774  0.00  0.00    +0.045 C 
ATOM      8  C   LIG    1      205.534 114.859 145.466  0.00  0.00    +0.236 C 
ATOM      9  N   LIG    1      204.193 115.179 144.956  0.00  0.00    -0.258 N 
ATOM     10  C   LIG    1      203.606 116.535 145.037  0.00  0.00    +0.323 C 
ENDROOT
BRANCH   1  11
ATOM     11  C   LIG    1      201.069 116.742 145.245  0.00  0.00    +0.034 A 
ATOM     12  C   LIG    1      199.945 117.345 144.653  0.00  0.00    +0.060 A 
ATOM     13  C   LIG    1      198.902 117.759 145.465  0.00  0.00    +0.167 A 
ATOM     14  O   LIG    1      197.758 118.357 145.072  0.00  0.00    -0.453 OA
ATOM     15  C   LIG    1      196.976 118.597 146.313  0.00  0.00    +0.466 C 
ATOM     16  O   LIG    1      197.818 118.064 147.409  0.00  0.00    -0.453 OA
ATOM     17  C   LIG    1      198.939 117.589 146.825  0.00  0.00    +0.166 A 
ATOM     18  C   LIG    1      200.028 116.996 147.444  0.00  0.00    +0.050 A 
ATOM     19  C   LIG    1      201.095 116.573 146.647  0.00  0.00    +0.014 A 
ENDBRANCH   1  11
BRANCH   2  20
ATOM     20  C   LIG    1      201.061 114.165 143.712  0.00  0.00    +0.124 A 
ATOM     21  C   LIG    1      200.732 114.174 142.357  0.00  0.00    +0.050 A 
ATOM     22  C   LIG    1      199.605 113.477 141.928  0.00  0.00    +0.024 A 
ATOM     23  C   LIG    1      198.822 112.779 142.853  0.00  0.00    +0.041 A 
ATOM     24 CL   LIG    1      197.424 111.913 142.316  0.00  0.00    -0.084 Cl
ATOM     25  C   LIG    1      199.163 112.777 144.210  0.00  0.00    +0.024 A 
ATOM     26  C   LIG    1      200.287 113.472 144.644  0.00  0.00    +0.050 A 
ENDBRANCH   2  20
BRANCH   1  27
ATOM     27  O   LIG    1      202.211 116.868 143.064  0.00  0.00    -0.347 OA
ATOM     28  H   LIG    1      201.731 117.707 143.123  0.00  0.00    +0.215 HD
ENDBRANCH   1  27
TORSDOF 3
ENDMDL
MODEL 3
REMARK VINA RESULT:      -7.7      2.382      3.657
REMARK  Name = ZINC000000622958
REMARK                            x       y       z     vdW  Elec       q    Type
REMARK                         _______ _______ _______ _____ _____    ______ ____
ROOT
ATOM      1  C   LIG    1      168.110 143.198 146.530  0.00  0.00    +0.271 C 
ATOM      2  N   LIG    1      169.466 143.148 147.017  0.00  0.00    -0.157 N 
ATOM      3  C   LIG    1      170.320 143.700 146.184  0.00  0.00    +0.250 C 
ATOM      4  C   LIG    1      171.822 143.800 146.405  0.00  0.00    +0.124 C 
ATOM      5  C   LIG    1      172.155 145.284 146.684  0.00  0.00    +0.012 C 
ATOM      6  C   LIG    1      172.185 146.068 145.358  0.00  0.00    +0.004 C 
ATOM      7  C   LIG    1      170.830 146.251 144.644  0.00  0.00    +0.045 C 
ATOM      8  C   LIG    1      170.358 144.911 144.047  0.00  0.00    +0.236 C 
ATOM      9  N   LIG    1      169.697 144.182 145.139  0.00  0.00    -0.258 N 
ATOM     10  C   LIG    1      168.227 144.034 145.230  0.00  0.00    +0.323 C 
ENDROOT
BRANCH   1  11
ATOM     11  C   LIG    1      167.173 143.853 147.550  0.00  0.00    +0.034 A 
ATOM     12  C   LIG    1      166.208 143.069 148.207  0.00  0.00    +0.060 A 
ATOM     13  C   LIG    1      165.362 143.675 149.121  0.00  0.00    +0.167 A 
ATOM     14  O   LIG    1      164.381 143.082 149.833  0.00  0.00    -0.453 OA
ATOM     15  C   LIG    1      163.772 144.156 150.660  0.00  0.00    +0.466 C 
ATOM     16  O   LIG    1      164.530 145.383 150.319  0.00  0.00    -0.453 OA
ATOM     17  C   LIG    1      165.449 145.014 149.401  0.00  0.00    +0.166 A 
ATOM     18  C   LIG    1      166.389 145.818 148.777  0.00  0.00    +0.050 A 
ATOM     19  C   LIG    1      167.252 145.231 147.848  0.00  0.00    +0.014 A 
ENDBRANCH   1  11
BRANCH   2  20
ATOM     20  C   LIG    1      169.804 142.617 148.289  0.00  0.00    +0.124 A 
ATOM     21  C   LIG    1      169.940 141.238 148.447  0.00  0.00    +0.050 A 
ATOM     22  C   LIG    1      170.285 140.730 149.697  0.00  0.00    +0.024 A 
ATOM     23  C   LIG    1      170.491 141.600 150.772  0.00  0.00    +0.041 A 
ATOM     24 CL   LIG    1      170.921 140.964 152.322  0.00  0.00    -0.084 Cl
ATOM     25  C   LIG    1      170.351 142.981 150.601  0.00  0.00    +0.024 A 
ATOM     26  C   LIG    1      170.006 143.495 149.355  0.00  0.00    +0.050 A 
ENDBRANCH   2  20
BRANCH   1  27
ATOM     27  O   LIG    1      167.753 141.856 146.224  0.00  0.00    -0.347 OA
ATOM     28  H   LIG    1      168.567 141.335 146.179  0.00  0.00    +0.215 HD
ENDBRANCH   1  27
TORSDOF 3
ENDMDL
MODEL 4
REMARK VINA RESULT:      -7.5     44.955     48.170
REMARK  Name = ZINC000000622958
REMARK                            x       y       z     vdW  Elec       q    Type
REMARK                         _______ _______ _______ _____ _____    ______ ____
ROOT
ATOM      1  C   LIG    1      206.049 113.411 146.866  0.00  0.00    +0.271 C 
ATOM      2  N   LIG    1      206.662 113.133 145.591  0.00  0.00    -0.157 N 
ATOM      3  C   LIG    1      207.527 112.146 145.654  0.00  0.00    +0.250 C 
ATOM      4  C   LIG    1      208.343 111.617 144.483  0.00  0.00    +0.124 C 
ATOM      5  C   LIG    1      207.785 110.222 144.117  0.00  0.00    +0.012 C 
ATOM      6  C   LIG    1      208.321 109.172 145.109  0.00  0.00    +0.004 C 
ATOM      7  C   LIG    1      207.797 109.273 146.557  0.00  0.00    +0.045 C 
ATOM      8  C   LIG    1      208.405 110.504 147.257  0.00  0.00    +0.236 C 
ATOM      9  N   LIG    1      207.575 111.653 146.865  0.00  0.00    -0.258 N 
ATOM     10  C   LIG    1      206.604 112.291 147.782  0.00  0.00    +0.323 C 
ENDROOT
BRANCH   1  11
ATOM     11  C   LIG    1      204.520 113.369 146.773  0.00  0.00    +0.034 A 
ATOM     12  C   LIG    1      203.808 114.560 146.543  0.00  0.00    +0.060 A 
ATOM     13  C   LIG    1      202.426 114.509 146.469  0.00  0.00    +0.167 A 
ATOM     14  O   LIG    1      201.587 115.546 146.261  0.00  0.00    -0.453 OA
ATOM     15  C   LIG    1      200.217 114.971 146.269  0.00  0.00    +0.466 C 
ATOM     16  O   LIG    1      200.410 113.520 146.499  0.00  0.00    -0.453 OA
ATOM     17  C   LIG    1      201.742 113.330 146.609  0.00  0.00    +0.166 A 
ATOM     18  C   LIG    1      202.409 112.136 146.833  0.00  0.00    +0.050 A 
ATOM     19  C   LIG    1      203.804 112.161 146.916  0.00  0.00    +0.014 A 
ENDBRANCH   1  11
BRANCH   2  20
ATOM     20  C   LIG    1      206.301 113.818 144.402  0.00  0.00    +0.124 A 
ATOM     21  C   LIG    1      205.346 113.264 143.549  0.00  0.00    +0.050 A 
ATOM     22  C   LIG    1      204.990 113.951 142.392  0.00  0.00    +0.024 A 
ATOM     23  C   LIG    1      205.587 115.182 142.099  0.00  0.00    +0.041 A 
ATOM     24 CL   LIG    1      205.140 116.033 140.661  0.00  0.00    -0.084 Cl
ATOM     25  C   LIG    1      206.543 115.728 142.962  0.00  0.00    +0.024 A 
ATOM     26  C   LIG    1      206.903 115.045 144.119  0.00  0.00    +0.050 A 
ENDBRANCH   2  20
BRANCH   1  27
ATOM     27  O   LIG    1      206.549 114.677 147.274  0.00  0.00    -0.347 OA
ATOM     28  H   LIG    1      206.019 115.361 146.839  0.00  0.00    +0.215 HD
ENDBRANCH   1  27
TORSDOF 3
ENDMDL
MODEL 5
REMARK VINA RESULT:      -7.2      4.365      6.669
REMARK  Name = ZINC000000622958
REMARK                            x       y       z     vdW  Elec       q    Type
REMARK                         _______ _______ _______ _____ _____    ______ ____
ROOT
ATOM      1  C   LIG    1      169.592 150.465 148.774  0.00  0.00    +0.271 C 
ATOM      2  N   LIG    1      168.265 150.122 149.218  0.00  0.00    -0.157 N 
ATOM      3  C   LIG    1      167.439 151.144 149.172  0.00  0.00    +0.250 C 
ATOM      4  C   LIG    1      165.973 151.107 149.580  0.00  0.00    +0.124 C 
ATOM      5  C   LIG    1      165.127 151.218 148.290  0.00  0.00    +0.012 C 
ATOM      6  C   LIG    1      165.077 152.686 147.825  0.00  0.00    +0.004 C 
ATOM      7  C   LIG    1      166.402 153.280 147.301  0.00  0.00    +0.045 C 
ATOM      8  C   LIG    1      167.386 153.497 148.467  0.00  0.00    +0.236 C 
ATOM      9  N   LIG    1      168.045 152.202 148.697  0.00  0.00    -0.258 N 
ATOM     10  C   LIG    1      169.441 151.929 148.288  0.00  0.00    +0.323 C 
ENDROOT
BRANCH   1  11
ATOM     11  C   LIG    1      170.065 149.535 147.651  0.00  0.00    +0.034 A 
ATOM     12  C   LIG    1      171.010 148.532 147.935  0.00  0.00    +0.060 A 
ATOM     13  C   LIG    1      171.434 147.703 146.910  0.00  0.00    +0.167 A 
ATOM     14  O   LIG    1      172.332 146.700 146.998  0.00  0.00    -0.453 OA
ATOM     15  C   LIG    1      172.438 146.126 145.632  0.00  0.00    +0.466 C 
ATOM     16  O   LIG    1      171.502 146.923 144.804  0.00  0.00    -0.453 OA
ATOM     17  C   LIG    1      170.951 147.835 145.634  0.00  0.00    +0.166 A 
ATOM     18  C   LIG    1      170.017 148.809 145.317  0.00  0.00    +0.050 A 
ATOM     19  C   LIG    1      169.576 149.660 146.333  0.00  0.00    +0.014 A 
ENDBRANCH   1  11
BRANCH   2  20
ATOM     20  C   LIG    1      167.899 148.802 149.593  0.00  0.00    +0.124 A 
ATOM     21  C   LIG    1      167.645 147.851 148.605  0.00  0.00    +0.050 A 
ATOM     22  C   LIG    1      167.300 146.556 148.985  0.00  0.00    +0.024 A 
ATOM     23  C   LIG    1      167.214 146.225 150.340  0.00  0.00    +0.041 A 
ATOM     24 CL   LIG    1      166.787 144.615 150.807  0.00  0.00    -0.084 Cl
ATOM     25  C   LIG    1      167.472 147.188 151.322  0.00  0.00    +0.024 A 
ATOM     26  C   LIG    1      167.816 148.484 150.949  0.00  0.00    +0.050 A 
ENDBRANCH   2  20
BRANCH   1  27
ATOM     27  O   LIG    1      170.419 150.411 149.929  0.00  0.00    -0.347 OA
ATOM     28  H   LIG    1      170.438 149.493 150.238  0.00  0.00    +0.215 HD
ENDBRANCH   1  27
TORSDOF 3
ENDMDL
MODEL 6
REMARK VINA RESULT:      -7.2      3.170      4.423
REMARK  Name = ZINC000000622958
REMARK                            x       y       z     vdW  Elec       q    Type
REMARK                         _______ _______ _______ _____ _____    ______ ____
ROOT
ATOM      1  C   LIG    1      166.679 143.678 147.473  0.00  0.00    +0.271 C 
ATOM      2  N   LIG    1      168.113 143.811 147.442  0.00  0.00    -0.157 N 
ATOM      3  C   LIG    1      168.526 144.579 146.459  0.00  0.00    +0.250 C 
ATOM      4  C   LIG    1      169.980 144.910 146.154  0.00  0.00    +0.124 C 
ATOM      5  C   LIG    1      170.208 146.395 146.524  0.00  0.00    +0.012 C 
ATOM      6  C   LIG    1      169.651 147.299 145.408  0.00  0.00    +0.004 C 
ATOM      7  C   LIG    1      168.117 147.319 145.249  0.00  0.00    +0.045 C 
ATOM      8  C   LIG    1      167.626 145.984 144.656  0.00  0.00    +0.236 C 
ATOM      9  N   LIG    1      167.508 145.049 145.785  0.00  0.00    -0.258 N 
ATOM     10  C   LIG    1      166.205 144.646 146.360  0.00  0.00    +0.323 C 
ENDROOT
BRANCH   1  11
ATOM     11  C   LIG    1      166.111 144.061 148.844  0.00  0.00    +0.034 A 
ATOM     12  C   LIG    1      165.972 145.419 149.181  0.00  0.00    +0.060 A 
ATOM     13  C   LIG    1      165.464 145.751 150.426  0.00  0.00    +0.167 A 
ATOM     14  O   LIG    1      165.269 146.993 150.916  0.00  0.00    -0.453 OA
ATOM     15  C   LIG    1      164.712 146.810 152.282  0.00  0.00    +0.466 C 
ATOM     16  O   LIG    1      164.626 145.343 152.470  0.00  0.00    -0.453 OA
ATOM     17  C   LIG    1      165.092 144.790 151.329  0.00  0.00    +0.166 A 
ATOM     18  C   LIG    1      165.211 143.442 151.032  0.00  0.00    +0.050 A 
ATOM     19  C   LIG    1      165.724 143.080 149.783  0.00  0.00    +0.014 A 
ENDBRANCH   1  11
BRANCH   2  20
ATOM     20  C   LIG    1      168.959 143.222 148.419  0.00  0.00    +0.124 A 
ATOM     21  C   LIG    1      169.432 141.924 148.230  0.00  0.00    +0.050 A 
ATOM     22  C   LIG    1      170.271 141.362 149.188  0.00  0.00    +0.024 A 
ATOM     23  C   LIG    1      170.630 142.099 150.321  0.00  0.00    +0.041 A 
ATOM     24 CL   LIG    1      171.675 141.397 151.508  0.00  0.00    -0.084 Cl
ATOM     25  C   LIG    1      170.149 143.400 150.500  0.00  0.00    +0.024 A 
ATOM     26  C   LIG    1      169.309 143.967 149.546  0.00  0.00    +0.050 A 
ENDBRANCH   2  20
BRANCH   1  27
ATOM     27  O   LIG    1      166.401 142.332 147.110  0.00  0.00    -0.347 OA
ATOM     28  H   LIG    1      166.910 141.754 147.697  0.00  0.00    +0.215 HD
ENDBRANCH   1  27
TORSDOF 3
ENDMDL
MODEL 7
REMARK VINA RESULT:      -7.1     42.786     46.071
REMARK  Name = ZINC000000622958
REMARK                            x       y       z     vdW  Elec       q    Type
REMARK                         _______ _______ _______ _____ _____    ______ ____
ROOT
ATOM      1  C   LIG    1      158.884 187.956 158.218  0.00  0.00    +0.271 C 
ATOM      2  N   LIG    1      159.229 188.919 159.233  0.00  0.00    -0.157 N 
ATOM      3  C   LIG    1      158.301 189.837 159.392  0.00  0.00    +0.250 C 
ATOM      4  C   LIG    1      158.369 190.993 160.379  0.00  0.00    +0.124 C 
ATOM      5  C   LIG    1      157.344 190.710 161.502  0.00  0.00    +0.012 C 
ATOM      6  C   LIG    1      155.927 191.065 161.012  0.00  0.00    +0.004 C 
ATOM      7  C   LIG    1      155.340 190.158 159.911  0.00  0.00    +0.045 C 
ATOM      8  C   LIG    1      156.059 190.415 158.571  0.00  0.00    +0.236 C 
ATOM      9  N   LIG    1      157.286 189.605 158.600  0.00  0.00    -0.258 N 
ATOM     10  C   LIG    1      157.442 188.357 157.819  0.00  0.00    +0.323 C 
ENDROOT
BRANCH   1  11
ATOM     11  C   LIG    1      158.951 186.524 158.760  0.00  0.00    +0.034 A 
ATOM     12  C   LIG    1      159.849 185.608 158.185  0.00  0.00    +0.060 A 
ATOM     13  C   LIG    1      159.894 184.314 158.680  0.00  0.00    +0.167 A 
ATOM     14  O   LIG    1      160.684 183.309 158.248  0.00  0.00    -0.453 OA
ATOM     15  C   LIG    1      160.352 182.136 159.097  0.00  0.00    +0.466 C 
ATOM     16  O   LIG    1      159.305 182.618 160.029  0.00  0.00    -0.453 OA
ATOM     17  C   LIG    1      159.090 183.913 159.715  0.00  0.00    +0.166 A 
ATOM     18  C   LIG    1      158.195 184.788 160.309  0.00  0.00    +0.050 A 
ATOM     19  C   LIG    1      158.128 186.098 159.826  0.00  0.00    +0.014 A 
ENDBRANCH   1  11
BRANCH   2  20
ATOM     20  C   LIG    1      160.415 188.825 160.008  0.00  0.00    +0.124 A 
ATOM     21  C   LIG    1      161.619 189.296 159.484  0.00  0.00    +0.050 A 
ATOM     22  C   LIG    1      162.774 189.210 160.258  0.00  0.00    +0.024 A 
ATOM     23  C   LIG    1      162.715 188.660 161.542  0.00  0.00    +0.041 A 
ATOM     24 CL   LIG    1      164.151 188.558 162.501  0.00  0.00    -0.084 Cl
ATOM     25  C   LIG    1      161.501 188.191 162.056  0.00  0.00    +0.024 A 
ATOM     26  C   LIG    1      160.344 188.273 161.287  0.00  0.00    +0.050 A 
ENDBRANCH   2  20
BRANCH   1  27
ATOM     27  O   LIG    1      159.778 188.186 157.138  0.00  0.00    -0.347 OA
ATOM     28  H   LIG    1      159.424 187.734 156.358  0.00  0.00    +0.215 HD
ENDBRANCH   1  27
TORSDOF 3
ENDMDL
MODEL 8
REMARK VINA RESULT:      -7.0     47.377     50.623
REMARK  Name = ZINC000000622958
REMARK                            x       y       z     vdW  Elec       q    Type
REMARK                         _______ _______ _______ _____ _____    ______ ____
ROOT
ATOM      1  C   LIG    1      207.890 112.584 148.025  0.00  0.00    +0.271 C 
ATOM      2  N   LIG    1      208.593 111.576 147.272  0.00  0.00    -0.157 N 
ATOM      3  C   LIG    1      209.240 110.731 148.043  0.00  0.00    +0.250 C 
ATOM      4  C   LIG    1      210.080 109.560 147.553  0.00  0.00    +0.124 C 
ATOM      5  C   LIG    1      209.317 108.261 147.899  0.00  0.00    +0.012 C 
ATOM      6  C   LIG    1      209.515 107.923 149.389  0.00  0.00    +0.004 C 
ATOM      7  C   LIG    1      208.843 108.878 150.399  0.00  0.00    +0.045 C 
ATOM      8  C   LIG    1      209.582 110.231 150.424  0.00  0.00    +0.236 C 
ATOM      9  N   LIG    1      209.042 111.016 149.305  0.00  0.00    -0.258 N 
ATOM     10  C   LIG    1      208.103 112.145 149.496  0.00  0.00    +0.323 C 
ENDROOT
BRANCH   1  11
ATOM     11  C   LIG    1      206.405 112.629 147.651  0.00  0.00    +0.034 A 
ATOM     12  C   LIG    1      205.897 113.749 146.969  0.00  0.00    +0.060 A 
ATOM     13  C   LIG    1      204.551 113.780 146.642  0.00  0.00    +0.167 A 
ATOM     14  O   LIG    1      203.896 114.770 145.999  0.00  0.00    -0.453 OA
ATOM     15  C   LIG    1      202.483 114.324 145.897  0.00  0.00    +0.466 C 
ATOM     16  O   LIG    1      202.450 112.993 146.548  0.00  0.00    -0.453 OA
ATOM     17  C   LIG    1      203.711 112.747 146.964  0.00  0.00    +0.166 A 
ATOM     18  C   LIG    1      204.175 111.625 147.632  0.00  0.00    +0.050 A 
ATOM     19  C   LIG    1      205.529 111.571 147.976  0.00  0.00    +0.014 A 
ENDBRANCH   1  11
BRANCH   2  20
ATOM     20  C   LIG    1      208.521 111.487 145.857  0.00  0.00    +0.124 A 
ATOM     21  C   LIG    1      209.363 112.276 145.073  0.00  0.00    +0.050 A 
ATOM     22  C   LIG    1      209.292 112.171 143.686  0.00  0.00    +0.024 A 
ATOM     23  C   LIG    1      208.387 111.283 143.098  0.00  0.00    +0.041 A 
ATOM     24 CL   LIG    1      208.304 111.154 141.375  0.00  0.00    -0.084 Cl
ATOM     25  C   LIG    1      207.547 110.497 143.895  0.00  0.00    +0.024 A 
ATOM     26  C   LIG    1      207.612 110.598 145.281  0.00  0.00    +0.050 A 
ENDBRANCH   2  20
BRANCH   1  27
ATOM     27  O   LIG    1      208.568 113.807 147.772  0.00  0.00    -0.347 OA
ATOM     28  H   LIG    1      208.866 113.796 146.850  0.00  0.00    +0.215 HD
ENDBRANCH   1  27
TORSDOF 3
ENDMDL
MODEL 9
REMARK VINA RESULT:      -6.8     58.786     61.623
REMARK  Name = ZINC000000622958
REMARK                            x       y       z     vdW  Elec       q    Type
REMARK                         _______ _______ _______ _____ _____    ______ ____
ROOT
ATOM      1  C   LIG    1      188.148  88.824 155.586  0.00  0.00    +0.271 C 
ATOM      2  N   LIG    1      187.609  87.616 155.014  0.00  0.00    -0.157 N 
ATOM      3  C   LIG    1      186.961  87.836 153.892  0.00  0.00    +0.250 C 
ATOM      4  C   LIG    1      186.273  86.771 153.051  0.00  0.00    +0.124 C 
ATOM      5  C   LIG    1      187.103  86.589 151.758  0.00  0.00    +0.012 C 
ATOM      6  C   LIG    1      186.787  87.730 150.773  0.00  0.00    +0.004 C 
ATOM      7  C   LIG    1      187.274  89.136 151.180  0.00  0.00    +0.045 C 
ATOM      8  C   LIG    1      186.427  89.674 152.351  0.00  0.00    +0.236 C 
ATOM      9  N   LIG    1      187.009  89.105 153.576  0.00  0.00    -0.258 N 
ATOM     10  C   LIG    1      187.827  89.900 154.519  0.00  0.00    +0.323 C 
ENDROOT
BRANCH   1  11
ATOM     11  C   LIG    1      189.654  88.700 155.839  0.00  0.00    +0.034 A 
ATOM     12  C   LIG    1      190.114  88.356 157.124  0.00  0.00    +0.060 A 
ATOM     13  C   LIG    1      191.478  88.255 157.341  0.00  0.00    +0.167 A 
ATOM     14  O   LIG    1      192.093  87.944 158.501  0.00  0.00    -0.453 OA
ATOM     15  C   LIG    1      193.550  87.968 158.211  0.00  0.00    +0.466 C 
ATOM     16  O   LIG    1      193.651  88.321 156.775  0.00  0.00    -0.453 OA
ATOM     17  C   LIG    1      192.384  88.476 156.336  0.00  0.00    +0.166 A 
ATOM     18  C   LIG    1      191.969  88.812 155.057  0.00  0.00    +0.050 A 
ATOM     19  C   LIG    1      190.597  88.925 154.813  0.00  0.00    +0.014 A 
ENDBRANCH   1  11
BRANCH   2  20
ATOM     20  C   LIG    1      187.829  86.334 155.583  0.00  0.00    +0.124 A 
ATOM     21  C   LIG    1      186.996  85.882 156.606  0.00  0.00    +0.050 A 
ATOM     22  C   LIG    1      187.213  84.618 157.148  0.00  0.00    +0.024 A 
ATOM     23  C   LIG    1      188.253  83.819 156.663  0.00  0.00    +0.041 A 
ATOM     24 CL   LIG    1      188.517  82.248 157.337  0.00  0.00    -0.084 Cl
ATOM     25  C   LIG    1      189.082  84.283 155.636  0.00  0.00    +0.024 A 
ATOM     26  C   LIG    1      188.871  85.546 155.091  0.00  0.00    +0.050 A 
ENDBRANCH   2  20
BRANCH   1  27
ATOM     27  O   LIG    1      187.400  89.064 156.771  0.00  0.00    -0.347 OA
ATOM     28  H   LIG    1      187.407  90.018 156.938  0.00  0.00    +0.215 HD
ENDBRANCH   1  27
TORSDOF 3
ENDMDL
