REMARK VINA RESULT:      -7.4      4.627      7.089
REMARK  Name = ZINC000049408611
REMARK                            x       y       z     vdW  Elec       q    Type
REMARK                         _______ _______ _______ _____ _____    ______ ____
ROOT
ATOM      1  N   LIG    1      168.371 150.773 147.601  0.00  0.00    -0.199 N 
ENDROOT
BRANCH   1   2
ATOM      2  C   LIG    1      169.219 150.312 146.578  0.00  0.00    +0.053 A 
ATOM      3  C   LIG    1      169.225 148.980 146.154  0.00  0.00    +0.044 A 
ATOM      4  C   LIG    1      170.080 148.599 145.123  0.00  0.00    +0.043 A 
ATOM      5 CL   LIG    1      170.097 146.954 144.584  0.00  0.00    -0.083 Cl
ATOM      6  C   LIG    1      170.920 149.537 144.516  0.00  0.00    +0.020 A 
ATOM      7  C   LIG    1      170.908 150.860 144.948  0.00  0.00    +0.003 A 
ATOM      8  C   LIG    1      170.062 151.251 145.980  0.00  0.00    +0.025 A 
ENDBRANCH   1   2
BRANCH   1  10
ATOM      9  O   LIG    1      168.956 151.785 149.818  0.00  0.00    -0.150 OA
ATOM     10  S   LIG    1      169.011 150.548 149.123  0.00  0.00    +0.076 S 
ATOM     11  O   LIG    1      170.292 149.949 148.996  0.00  0.00    -0.150 OA
BRANCH  10  12
ATOM     12  C   LIG    1      167.887 149.385 149.933  0.00  0.00    +0.125 A 
ATOM     13  C   LIG    1      168.096 148.032 149.842  0.00  0.00    +0.123 A 
ATOM     14  N   LIG    1      167.207 147.168 150.486  0.00  0.00    -0.287 N 
ATOM     15  C   LIG    1      167.207 145.839 150.556  0.00  0.00    +0.229 A 
ATOM     16  N   LIG    1      166.200 145.443 151.273  0.00  0.00    -0.137 NA
ATOM     17  N   LIG    1      165.513 146.550 151.683  0.00  0.00    -0.130 NA
ATOM     18  C   LIG    1      166.141 147.595 151.194  0.00  0.00    +0.161 A 
ATOM     19  C   LIG    1      165.898 148.998 151.280  0.00  0.00    +0.050 A 
ATOM     20  C   LIG    1      166.747 149.873 150.663  0.00  0.00    +0.034 A 
ENDBRANCH  10  12
ENDBRANCH   1  10
BRANCH   1  21
ATOM     21  C   LIG    1      167.979 152.186 147.514  0.00  0.00    +0.166 C 
BRANCH  21  22
ATOM     22  C   LIG    1      166.473 152.178 147.319  0.00  0.00    -0.028 A 
ATOM     23  C   LIG    1      165.614 152.414 148.393  0.00  0.00    +0.005 A 
ATOM     24  C   LIG    1      164.235 152.412 148.203  0.00  0.00    +0.000 A 
ATOM     25  C   LIG    1      163.707 152.174 146.939  0.00  0.00    +0.000 A 
ATOM     26  C   LIG    1      164.557 151.940 145.864  0.00  0.00    +0.000 A 
ATOM     27  C   LIG    1      165.936 151.943 146.053  0.00  0.00    +0.005 A 
ENDBRANCH  21  22
ENDBRANCH   1  21
TORSDOF 5
