REMARK VINA RESULT:      -7.4      0.000      0.000
REMARK  Name = ZINC000006087141
REMARK                            x       y       z     vdW  Elec       q    Type
REMARK                         _______ _______ _______ _____ _____    ______ ____
ROOT
ATOM      1  C   LIG    1      163.249 159.501 156.416  0.00  0.00    +0.222 C 
ENDROOT
BRANCH   1   2
ATOM      2  N   LIG    1      163.089 160.765 155.655  0.00  0.00    -0.290 N 
ATOM      3  C   LIG    1      164.043 161.763 155.746  0.00  0.00    +0.262 A 
ATOM      4  O   LIG    1      164.992 161.572 156.510  0.00  0.00    -0.267 OA
ATOM      5  C   LIG    1      163.872 162.948 154.936  0.00  0.00    +0.068 A 
ATOM      6  C   LIG    1      164.793 164.007 154.969  0.00  0.00    +0.035 A 
ATOM      7  C   LIG    1      164.591 165.128 154.173  0.00  0.00    +0.043 A 
ATOM      8 CL   LIG    1      165.732 166.428 154.213  0.00  0.00    -0.083 Cl
ATOM      9  C   LIG    1      163.473 165.211 153.340  0.00  0.00    +0.042 A 
ATOM     10  C   LIG    1      162.558 164.165 153.302  0.00  0.00    +0.068 A 
ATOM     11 CL   LIG    1      161.181 164.303 152.255  0.00  0.00    -0.081 Cl
ATOM     12  C   LIG    1      162.750 163.015 154.100  0.00  0.00    +0.096 A 
ATOM     13  N   LIG    1      161.848 161.934 154.068  0.00  0.00    -0.235 NA
ATOM     14  C   LIG    1      162.018 160.891 154.787  0.00  0.00    +0.203 A 
ENDBRANCH   1   2
BRANCH   1  17
ATOM     15  N   LIG    1      161.950 159.986 158.452  0.00  0.00    -0.281 N 
ATOM     16  H   LIG    1      162.826 160.475 158.723  0.00  0.00    +0.155 HD
ATOM     17  C   LIG    1      161.994 159.327 157.251  0.00  0.00    +0.237 C 
ATOM     18  O   LIG    1      161.100 158.584 156.901  0.00  0.00    -0.274 OA
BRANCH  15  20
ATOM     19  C   LIG    1      161.398 159.862 160.789  0.00  0.00    +0.141 A 
ATOM     20  C   LIG    1      160.953 159.964 159.463  0.00  0.00    +0.076 A 
ATOM     21  C   LIG    1      159.586 160.062 159.190  0.00  0.00    +0.030 A 
ATOM     22  C   LIG    1      158.666 160.036 160.238  0.00  0.00    -0.048 A 
ATOM     23  C   LIG    1      157.185 160.143 159.946  0.00  0.00    +0.044 C 
ATOM     24  C   LIG    1      159.115 159.931 161.556  0.00  0.00    +0.007 A 
ATOM     25  C   LIG    1      160.478 159.844 161.835  0.00  0.00    +0.048 A 
BRANCH  19  27
ATOM     26  C   LIG    1      163.563 160.795 161.677  0.00  0.00    +0.277 C 
ATOM     27  O   LIG    1      162.770 159.781 161.021  0.00  0.00    -0.493 OA
ENDBRANCH  19  27
ENDBRANCH  15  20
ENDBRANCH   1  17
TORSDOF 4
