REMARK VINA RESULT:      -6.2     41.297     45.055
REMARK  Name = ZINC000022625070
REMARK                            x       y       z     vdW  Elec       q    Type
REMARK                         _______ _______ _______ _____ _____    ______ ____
ROOT
ATOM      1  C   LIG    1      169.211 145.002 147.378  0.00  0.00    +0.171 A 
ATOM      2  C   LIG    1      170.077 143.968 147.735  0.00  0.00    +0.032 A 
ATOM      3  C   LIG    1      171.103 143.157 146.964  0.00  0.00    +0.046 C 
ATOM      4  C   LIG    1      172.225 142.728 147.950  0.00  0.00    +0.040 C 
ATOM      5  C   LIG    1      171.646 142.132 149.243  0.00  0.00    -0.036 A 
ATOM      6  C   LIG    1      170.469 142.668 149.792  0.00  0.00    +0.027 A 
ATOM      7  C   LIG    1      169.985 142.194 151.014  0.00  0.00    +0.057 A 
ATOM      8  C   LIG    1      170.670 141.172 151.668  0.00  0.00    +0.121 A 
ATOM      9  C   LIG    1      171.828 140.623 151.122  0.00  0.00    +0.046 A 
ATOM     10  C   LIG    1      172.316 141.110 149.912  0.00  0.00    +0.008 A 
ATOM     11  C   LIG    1      169.804 143.687 149.016  0.00  0.00    +0.171 A 
ATOM     12  O   LIG    1      168.823 144.506 149.415  0.00  0.00    -0.354 OA
ATOM     13  N   LIG    1      168.464 145.308 148.417  0.00  0.00    -0.073 NA
ENDROOT
BRANCH   1  16
ATOM     14  N   LIG    1      170.242 146.218 145.543  0.00  0.00    -0.307 N 
ATOM     15  H   LIG    1      171.074 146.200 146.146  0.00  0.00    +0.149 HD
ATOM     16  C   LIG    1      169.111 145.655 146.068  0.00  0.00    +0.266 C 
ATOM     17  O   LIG    1      168.075 145.739 145.410  0.00  0.00    -0.268 OA
BRANCH  14  18
ATOM     18  C   LIG    1      170.253 147.081 144.378  0.00  0.00    +0.070 C 
ATOM     19  C   LIG    1      171.181 146.417 143.361  0.00  0.00    +0.028 C 
BRANCH  18  20
ATOM     20  C   LIG    1      170.725 148.478 144.822  0.00  0.00    +0.023 C 
BRANCH  20  21
ATOM     21  C   LIG    1      169.628 149.560 144.927  0.00  0.00    +0.017 C 
BRANCH  21  22
ATOM     22  C   LIG    1      170.353 150.926 144.869  0.00  0.00    +0.084 C 
BRANCH  22  23
ATOM     23  N   LIG    1      169.941 151.771 146.021  0.00  0.00    -0.303 NA
BRANCH  23  25
ATOM     24  C   LIG    1      167.870 152.116 147.135  0.00  0.00    +0.020 C 
ATOM     25  C   LIG    1      168.991 151.094 146.933  0.00  0.00    +0.081 C 
ENDBRANCH  23  25
BRANCH  23  26
ATOM     26  C   LIG    1      171.075 152.407 146.719  0.00  0.00    +0.081 C 
ATOM     27  C   LIG    1      172.138 151.308 146.844  0.00  0.00    +0.020 C 
ENDBRANCH  23  26
ENDBRANCH  22  23
ENDBRANCH  21  22
ENDBRANCH  20  21
ENDBRANCH  18  20
ENDBRANCH  14  18
ENDBRANCH   1  16
BRANCH   8  28
ATOM     28  O   LIG    1      170.240 140.659 152.871  0.00  0.00    -0.495 OA
ATOM     29  C   LIG    1      170.420 141.295 154.157  0.00  0.00    +0.277 C 
ENDBRANCH   8  28
TORSDOF 9
