MODEL 1
REMARK VINA RESULT:      -8.6      0.000      0.000
REMARK  Name = 
REMARK                            x       y       z     vdW  Elec       q    Type
REMARK                         _______ _______ _______ _____ _____    ______ ____
ROOT
ATOM      1  C   LIG    1      205.145 113.494 144.562  0.00  0.00    +0.072 C 
ATOM      2  C   LIG    1      204.235 113.785 143.278  0.00  0.00    +0.070 C 
ATOM      3  N   LIG    1      205.394 114.097 142.304  0.00  0.00    -0.269 NA
ATOM      4  C   LIG    1      205.156 115.371 141.787  0.00  0.00    +0.073 C 
ATOM      5  C   LIG    1      204.991 116.135 143.110  0.00  0.00    +0.024 C 
ATOM      6  C   LIG    1      206.650 113.705 142.682  0.00  0.00    +0.099 C 
ATOM      7  C   LIG    1      207.070 114.498 143.903  0.00  0.00    -0.013 C 
ATOM      8  C   LIG    1      203.842 115.310 143.593  0.00  0.00    +0.055 C 
ATOM      9  C   LIG    1      203.753 115.443 145.182  0.00  0.00    +0.120 C 
ATOM     10  C   LIG    1      203.027 114.078 145.608  0.00  0.00    +0.268 C 
ATOM     11  O   LIG    1      202.824 114.505 146.938  0.00  0.00    -0.209 OA
ATOM     12  N   LIG    1      202.427 116.264 145.247  0.00  0.00    -0.304 N 
ATOM     13  C   LIG    1      201.967 116.842 146.477  0.00  0.00    +0.112 C 
ATOM     14  C   LIG    1      201.862 116.305 143.991  0.00  0.00    +0.047 A 
ATOM     15  C   LIG    1      200.635 116.819 143.648  0.00  0.00    +0.051 A 
ATOM     16  C   LIG    1      200.142 116.831 142.363  0.00  0.00    +0.137 A 
ATOM     17  C   LIG    1      200.937 116.296 141.392  0.00  0.00    +0.026 A 
ATOM     18  C   LIG    1      202.166 115.782 141.748  0.00  0.00    -0.003 A 
ATOM     19  C   LIG    1      202.660 115.769 143.032  0.00  0.00    -0.007 A 
ATOM     20  C   LIG    1      204.180 112.954 145.724  0.00  0.00    +0.213 C 
ATOM     21  C   LIG    1      206.168 114.302 144.865  0.00  0.00    -0.025 C 
ENDROOT
BRANCH  17  22
ATOM     22  C   LIG    1      200.460 116.310 139.964  0.00  0.00    +0.146 C 
ATOM     23  C   LIG    1      199.242 115.549 139.724  0.00  0.00    +0.068 A 
ATOM     24  C   LIG    1      198.512 115.433 138.590  0.00  0.00    -0.005 A 
ATOM     25  C   LIG    1      197.423 114.626 138.865  0.00  0.00    +0.015 A 
ATOM     26  C   LIG    1      197.510 114.262 140.176  0.00  0.00    +0.081 A 
ATOM     27  C   LIG    1      196.588 113.448 140.818  0.00  0.00    +0.019 A 
ATOM     28  C   LIG    1      195.525 112.976 140.106  0.00  0.00    +0.002 A 
ATOM     29  C   LIG    1      195.417 113.330 138.781  0.00  0.00    +0.000 A 
ATOM     30  C   LIG    1      196.350 114.150 138.149  0.00  0.00    +0.001 A 
ATOM     31  C   LIG    1      198.847 116.089 137.253  0.00  0.00    +0.045 C 
ATOM     32  C   LIG    1      199.342 115.046 136.272  0.00  0.00    +0.077 C 
ATOM     33  N   LIG    1      200.729 115.358 135.842  0.00  0.00    -0.270 NA
ATOM     34  C   LIG    1      201.432 114.169 135.506  0.00  0.00    +0.103 C 
ATOM     35  C   LIG    1      202.499 113.710 136.401  0.00  0.00    +0.141 C 
ATOM     36  C   LIG    1      202.376 113.945 137.851  0.00  0.00    +0.033 C 
ATOM     37  C   LIG    1      201.026 114.835 138.112  0.00  0.00    +0.020 C 
ATOM     38  O   LIG    1      203.777 114.184 136.004  0.00  0.00    -0.224 OA
ATOM     39  C   LIG    1      201.466 115.920 136.957  0.00  0.00    +0.072 C 
ATOM     40  N   LIG    1      198.598 114.823 140.663  0.00  0.00    -0.249 NA
ATOM     41  C   LIG    1      201.646 115.732 139.269  0.00  0.00    +0.022 C 
BRANCH  35  42
ATOM     42  C   LIG    1      202.613 112.180 136.230  0.00  0.00    +0.032 C 
ATOM     43  C   LIG    1      201.550 111.918 135.145  0.00  0.00    +0.003 C 
ENDBRANCH  35  42
BRANCH  22  44
ATOM     44  C   LIG    1      200.185 117.732 139.720  0.00  0.00    +0.325 C 
ATOM     45  O   LIG    1      201.169 118.479 139.631  0.00  0.00    -0.249 OA
BRANCH  44  46
ATOM     46  O   LIG    1      198.967 118.350 139.577  0.00  0.00    -0.444 OA
ATOM     47  C   LIG    1      198.902 119.761 139.528  0.00  0.00    +0.256 C 
ENDBRANCH  44  46
ENDBRANCH  22  44
ENDBRANCH  17  22
BRANCH   1  49
ATOM     48  C   LIG    1      204.830 111.231 144.365  0.00  0.00    +0.001 C 
ATOM     49  C   LIG    1      205.687 112.092 144.132  0.00  0.00    +0.009 C 
ENDBRANCH   1  49
BRANCH  10  50
ATOM     50  C   LIG    1      201.856 113.630 145.093  0.00  0.00    +0.350 C 
ATOM     51  O   LIG    1      200.886 113.642 145.916  0.00  0.00    -0.247 OA
BRANCH  50  52
ATOM     52  O   LIG    1      201.339 113.139 143.913  0.00  0.00    -0.443 OA
ATOM     53  C   LIG    1      200.018 113.068 143.490  0.00  0.00    +0.256 C 
ENDBRANCH  50  52
ENDBRANCH  10  50
BRANCH  16  54
ATOM     54  O   LIG    1      198.862 117.380 142.098  0.00  0.00    -0.472 OA
ATOM     55  C   LIG    1      197.927 117.464 143.161  0.00  0.00    +0.252 C 
ENDBRANCH  16  54
BRANCH  20  56
ATOM     56  O   LIG    1      204.968 113.542 146.862  0.00  0.00    -0.449 OA
BRANCH  56  57
ATOM     57  C   LIG    1      205.760 112.773 147.641  0.00  0.00    +0.318 C 
ATOM     58  O   LIG    1      206.872 113.189 148.041  0.00  0.00    -0.250 OA
ATOM     59  C   LIG    1      205.344 111.397 148.057  0.00  0.00    +0.121 C 
ENDBRANCH  56  57
ENDBRANCH  20  56
TORSDOF 10
ENDMDL
MODEL 2
REMARK VINA RESULT:      -7.9      2.350      3.689
REMARK  Name = 
REMARK                            x       y       z     vdW  Elec       q    Type
REMARK                         _______ _______ _______ _____ _____    ______ ____
ROOT
ATOM      1  C   LIG    1      208.068 111.143 144.138  0.00  0.00    +0.072 C 
ATOM      2  C   LIG    1      206.884 111.853 143.331  0.00  0.00    +0.070 C 
ATOM      3  N   LIG    1      207.715 112.226 142.083  0.00  0.00    -0.269 NA
ATOM      4  C   LIG    1      207.600 113.607 141.918  0.00  0.00    +0.073 C 
ATOM      5  C   LIG    1      208.024 114.050 143.327  0.00  0.00    +0.024 C 
ATOM      6  C   LIG    1      208.914 111.588 141.917  0.00  0.00    +0.099 C 
ATOM      7  C   LIG    1      209.854 112.001 143.031  0.00  0.00    -0.013 C 
ATOM      8  C   LIG    1      206.939 113.298 144.030  0.00  0.00    +0.055 C 
ATOM      9  C   LIG    1      207.384 113.060 145.544  0.00  0.00    +0.120 C 
ATOM     10  C   LIG    1      206.560 111.745 145.950  0.00  0.00    +0.268 C 
ATOM     11  O   LIG    1      206.881 111.866 147.319  0.00  0.00    -0.209 OA
ATOM     12  N   LIG    1      206.350 114.015 146.218  0.00  0.00    -0.304 N 
ATOM     13  C   LIG    1      206.433 114.341 147.613  0.00  0.00    +0.112 C 
ATOM     14  C   LIG    1      205.440 114.431 145.270  0.00  0.00    +0.047 A 
ATOM     15  C   LIG    1      204.305 115.176 145.479  0.00  0.00    +0.051 A 
ATOM     16  C   LIG    1      203.446 115.561 144.475  0.00  0.00    +0.137 A 
ATOM     17  C   LIG    1      203.764 115.169 143.207  0.00  0.00    +0.026 A 
ATOM     18  C   LIG    1      204.906 114.422 143.010  0.00  0.00    -0.003 A 
ATOM     19  C   LIG    1      205.764 114.035 144.013  0.00  0.00    -0.007 A 
ATOM     20  C   LIG    1      207.428 110.479 145.450  0.00  0.00    +0.213 C 
ATOM     21  C   LIG    1      209.280 111.706 144.199  0.00  0.00    -0.025 C 
ENDROOT
BRANCH  17  22
ATOM     22  C   LIG    1      202.876 115.589 142.066  0.00  0.00    +0.146 C 
ATOM     23  C   LIG    1      201.590 114.908 142.017  0.00  0.00    +0.068 A 
ATOM     24  C   LIG    1      200.542 115.113 141.184  0.00  0.00    -0.005 A 
ATOM     25  C   LIG    1      199.532 114.241 141.549  0.00  0.00    +0.015 A 
ATOM     26  C   LIG    1      199.988 113.513 142.608  0.00  0.00    +0.081 A 
ATOM     27  C   LIG    1      199.249 112.530 143.250  0.00  0.00    +0.019 A 
ATOM     28  C   LIG    1      197.987 112.266 142.804  0.00  0.00    +0.002 A 
ATOM     29  C   LIG    1      197.506 112.988 141.737  0.00  0.00    +0.000 A 
ATOM     30  C   LIG    1      198.260 113.973 141.102  0.00  0.00    +0.001 A 
ATOM     31  C   LIG    1      200.500 116.135 140.052  0.00  0.00    +0.045 C 
ATOM     32  C   LIG    1      200.594 115.431 138.713  0.00  0.00    +0.077 C 
ATOM     33  N   LIG    1      201.801 115.881 137.976  0.00  0.00    -0.270 NA
ATOM     34  C   LIG    1      202.278 114.854 137.116  0.00  0.00    +0.103 C 
ATOM     35  C   LIG    1      203.530 114.175 137.463  0.00  0.00    +0.141 C 
ATOM     36  C   LIG    1      203.874 113.976 138.883  0.00  0.00    +0.033 C 
ATOM     37  C   LIG    1      202.738 114.726 139.794  0.00  0.00    +0.020 C 
ATOM     38  O   LIG    1      204.657 114.768 136.836  0.00  0.00    -0.224 OA
ATOM     39  C   LIG    1      202.884 116.108 138.913  0.00  0.00    +0.072 C 
ATOM     40  N   LIG    1      201.212 113.928 142.865  0.00  0.00    -0.249 NA
ATOM     41  C   LIG    1      203.746 115.260 140.901  0.00  0.00    +0.022 C 
BRANCH  35  42
ATOM     42  C   LIG    1      203.473 112.763 136.842  0.00  0.00    +0.032 C 
ATOM     43  C   LIG    1      204.749 112.762 135.978  0.00  0.00    +0.003 C 
ENDBRANCH  35  42
BRANCH  22  44
ATOM     44  C   LIG    1      202.647 117.015 142.332  0.00  0.00    +0.325 C 
ATOM     45  O   LIG    1      203.598 117.779 142.115  0.00  0.00    -0.249 OA
BRANCH  44  46
ATOM     46  O   LIG    1      201.504 117.620 142.795  0.00  0.00    -0.444 OA
ATOM     47  C   LIG    1      201.167 118.915 142.340  0.00  0.00    +0.256 C 
ENDBRANCH  44  46
ENDBRANCH  22  44
ENDBRANCH  17  22
BRANCH   1  49
ATOM     48  C   LIG    1      207.248 109.052 143.675  0.00  0.00    +0.001 C 
ATOM     49  C   LIG    1      208.141 109.823 143.303  0.00  0.00    +0.009 C 
ENDBRANCH   1  49
BRANCH  10  50
ATOM     50  C   LIG    1      205.220 111.597 145.810  0.00  0.00    +0.350 C 
ATOM     51  O   LIG    1      204.574 111.638 146.905  0.00  0.00    -0.247 OA
BRANCH  50  52
ATOM     52  O   LIG    1      204.274 111.407 144.825  0.00  0.00    -0.443 OA
ATOM     53  C   LIG    1      202.911 111.669 144.847  0.00  0.00    +0.256 C 
ENDBRANCH  50  52
ENDBRANCH  10  50
BRANCH  16  54
ATOM     54  O   LIG    1      202.293 116.327 144.780  0.00  0.00    -0.472 OA
ATOM     55  C   LIG    1      201.509 115.954 145.902  0.00  0.00    +0.252 C 
ENDBRANCH  16  54
BRANCH  20  56
ATOM     56  O   LIG    1      208.638 110.664 146.322  0.00  0.00    -0.449 OA
BRANCH  56  57
ATOM     57  C   LIG    1      209.220 109.619 146.952  0.00  0.00    +0.318 C 
ATOM     58  O   LIG    1      208.567 108.894 147.737  0.00  0.00    -0.250 OA
ATOM     59  C   LIG    1      210.663 109.286 146.738  0.00  0.00    +0.121 C 
ENDBRANCH  56  57
ENDBRANCH  20  56
TORSDOF 10
ENDMDL
MODEL 3
REMARK VINA RESULT:      -7.7     15.496     19.517
REMARK  Name = 
REMARK                            x       y       z     vdW  Elec       q    Type
REMARK                         _______ _______ _______ _____ _____    ______ ____
ROOT
ATOM      1  C   LIG    1      188.440 103.873 150.055  0.00  0.00    +0.072 C 
ATOM      2  C   LIG    1      188.242 105.360 149.501  0.00  0.00    +0.070 C 
ATOM      3  N   LIG    1      189.464 105.982 150.217  0.00  0.00    -0.269 NA
ATOM      4  C   LIG    1      188.985 107.044 150.984  0.00  0.00    +0.073 C 
ATOM      5  C   LIG    1      187.891 106.299 151.764  0.00  0.00    +0.024 C 
ATOM      6  C   LIG    1      190.407 105.119 150.706  0.00  0.00    +0.099 C 
ATOM      7  C   LIG    1      189.797 104.299 151.824  0.00  0.00    -0.013 C 
ATOM      8  C   LIG    1      187.136 105.870 150.548  0.00  0.00    +0.055 C 
ATOM      9  C   LIG    1      186.242 104.602 150.925  0.00  0.00    +0.120 C 
ATOM     10  C   LIG    1      186.068 103.862 149.513  0.00  0.00    +0.268 C 
ATOM     11  O   LIG    1      185.087 102.975 150.006  0.00  0.00    -0.209 OA
ATOM     12  N   LIG    1      184.847 105.295 150.826  0.00  0.00    -0.304 N 
ATOM     13  C   LIG    1      183.653 104.634 151.271  0.00  0.00    +0.112 C 
ATOM     14  C   LIG    1      185.006 106.549 150.278  0.00  0.00    +0.047 A 
ATOM     15  C   LIG    1      184.015 107.427 149.911  0.00  0.00    +0.051 A 
ATOM     16  C   LIG    1      184.256 108.672 149.375  0.00  0.00    +0.137 A 
ATOM     17  C   LIG    1      185.562 109.031 149.211  0.00  0.00    +0.026 A 
ATOM     18  C   LIG    1      186.548 108.141 149.583  0.00  0.00    -0.003 A 
ATOM     19  C   LIG    1      186.308 106.896 150.117  0.00  0.00    -0.007 A 
ATOM     20  C   LIG    1      187.374 102.935 149.309  0.00  0.00    +0.213 C 
ATOM     21  C   LIG    1      188.727 103.661 151.345  0.00  0.00    -0.025 C 
ENDROOT
BRANCH  17  22
ATOM     22  C   LIG    1      185.883 110.394 148.657  0.00  0.00    +0.146 C 
ATOM     23  C   LIG    1      185.876 111.465 149.642  0.00  0.00    +0.068 A 
ATOM     24  C   LIG    1      186.205 112.770 149.492  0.00  0.00    -0.005 A 
ATOM     25  C   LIG    1      186.070 113.387 150.722  0.00  0.00    +0.015 A 
ATOM     26  C   LIG    1      185.659 112.437 151.609  0.00  0.00    +0.081 A 
ATOM     27  C   LIG    1      185.415 112.682 152.953  0.00  0.00    +0.019 A 
ATOM     28  C   LIG    1      185.595 113.948 153.429  0.00  0.00    +0.002 A 
ATOM     29  C   LIG    1      186.010 114.923 152.553  0.00  0.00    +0.000 A 
ATOM     30  C   LIG    1      186.251 114.662 151.205  0.00  0.00    +0.001 A 
ATOM     31  C   LIG    1      186.647 113.425 148.186  0.00  0.00    +0.045 C 
ATOM     32  C   LIG    1      185.541 114.310 147.648  0.00  0.00    +0.077 C 
ATOM     33  N   LIG    1      185.105 113.837 146.310  0.00  0.00    -0.270 NA
ATOM     34  C   LIG    1      183.739 114.159 146.082  0.00  0.00    +0.103 C 
ATOM     35  C   LIG    1      182.755 113.072 146.076  0.00  0.00    +0.141 C 
ATOM     36  C   LIG    1      182.959 111.910 146.959  0.00  0.00    +0.033 C 
ATOM     37  C   LIG    1      184.408 112.079 147.703  0.00  0.00    +0.020 C 
ATOM     38  O   LIG    1      182.513 112.570 144.770  0.00  0.00    -0.224 OA
ATOM     39  C   LIG    1      185.154 112.389 146.270  0.00  0.00    +0.072 C 
ATOM     40  N   LIG    1      185.551 111.305 150.942  0.00  0.00    -0.249 NA
ATOM     41  C   LIG    1      184.803 110.541 147.639  0.00  0.00    +0.022 C 
BRANCH  35  42
ATOM     42  C   LIG    1      181.398 113.681 146.486  0.00  0.00    +0.032 C 
ATOM     43  C   LIG    1      181.027 112.803 147.697  0.00  0.00    +0.003 C 
ENDBRANCH  35  42
BRANCH  22  44
ATOM     44  C   LIG    1      187.249 110.230 148.144  0.00  0.00    +0.325 C 
ATOM     45  O   LIG    1      187.360 109.903 146.954  0.00  0.00    -0.249 OA
BRANCH  44  46
ATOM     46  O   LIG    1      188.435 110.393 148.818  0.00  0.00    -0.444 OA
ATOM     47  C   LIG    1      189.605 110.725 148.100  0.00  0.00    +0.256 C 
ENDBRANCH  44  46
ENDBRANCH  22  44
ENDBRANCH  17  22
BRANCH   1  49
ATOM     48  C   LIG    1      189.278 103.245 148.015  0.00  0.00    +0.001 C 
ATOM     49  C   LIG    1      189.663 103.471 149.169  0.00  0.00    +0.009 C 
ENDBRANCH   1  49
BRANCH  10  50
ATOM     50  C   LIG    1      185.616 104.453 148.380  0.00  0.00    +0.350 C 
ATOM     51  O   LIG    1      184.422 104.144 148.071  0.00  0.00    -0.247 OA
BRANCH  50  52
ATOM     52  O   LIG    1      186.043 105.322 147.398  0.00  0.00    -0.443 OA
ATOM     53  C   LIG    1      186.652 105.048 146.180  0.00  0.00    +0.256 C 
ENDBRANCH  50  52
ENDBRANCH  10  50
BRANCH  16  54
ATOM     54  O   LIG    1      183.172 109.514 149.020  0.00  0.00    -0.472 OA
ATOM     55  C   LIG    1      182.141 109.729 149.970  0.00  0.00    +0.252 C 
ENDBRANCH  16  54
BRANCH  20  56
ATOM     56  O   LIG    1      187.172 101.988 150.459  0.00  0.00    -0.449 OA
BRANCH  56  57
ATOM     57  C   LIG    1      187.239 100.649 150.289  0.00  0.00    +0.318 C 
ATOM     58  O   LIG    1      186.984  99.864 151.232  0.00  0.00    -0.250 OA
ATOM     59  C   LIG    1      187.622 100.049 148.973  0.00  0.00    +0.121 C 
ENDBRANCH  56  57
ENDBRANCH  20  56
TORSDOF 10
ENDMDL
MODEL 4
REMARK VINA RESULT:      -7.5     16.246     19.527
REMARK  Name = 
REMARK                            x       y       z     vdW  Elec       q    Type
REMARK                         _______ _______ _______ _____ _____    ______ ____
ROOT
ATOM      1  C   LIG    1      194.098 100.753 156.564  0.00  0.00    +0.072 C 
ATOM      2  C   LIG    1      193.004 101.786 156.022  0.00  0.00    +0.070 C 
ATOM      3  N   LIG    1      192.826 101.144 154.627  0.00  0.00    -0.269 NA
ATOM      4  C   LIG    1      193.091 102.140 153.687  0.00  0.00    +0.073 C 
ATOM      5  C   LIG    1      194.471 102.586 154.196  0.00  0.00    +0.024 C 
ATOM      6  C   LIG    1      193.294  99.868 154.462  0.00  0.00    +0.099 C 
ATOM      7  C   LIG    1      194.804  99.872 154.595  0.00  0.00    -0.013 C 
ATOM      8  C   LIG    1      193.988 102.968 155.558  0.00  0.00    +0.055 C 
ATOM      9  C   LIG    1      195.230 102.953 156.561  0.00  0.00    +0.120 C 
ATOM     10  C   LIG    1      194.532 102.683 157.980  0.00  0.00    +0.268 C 
ATOM     11  O   LIG    1      195.712 102.959 158.705  0.00  0.00    -0.209 OA
ATOM     12  N   LIG    1      195.318 104.492 156.805  0.00  0.00    -0.304 N 
ATOM     13  C   LIG    1      196.426 105.073 157.508  0.00  0.00    +0.112 C 
ATOM     14  C   LIG    1      194.213 105.099 156.249  0.00  0.00    +0.047 A 
ATOM     15  C   LIG    1      193.852 106.421 156.351  0.00  0.00    +0.051 A 
ATOM     16  C   LIG    1      192.732 106.956 155.757  0.00  0.00    +0.137 A 
ATOM     17  C   LIG    1      191.953 106.105 155.028  0.00  0.00    +0.026 A 
ATOM     18  C   LIG    1      192.326 104.780 154.933  0.00  0.00    -0.003 A 
ATOM     19  C   LIG    1      193.445 104.244 155.528  0.00  0.00    -0.007 A 
ATOM     20  C   LIG    1      194.350 101.085 158.113  0.00  0.00    +0.213 C 
ATOM     21  C   LIG    1      195.122 100.379 155.788  0.00  0.00    -0.025 C 
ENDROOT
BRANCH  17  22
ATOM     22  C   LIG    1      190.732 106.644 154.332  0.00  0.00    +0.146 C 
ATOM     23  C   LIG    1      190.347 105.915 153.132  0.00  0.00    +0.068 A 
ATOM     24  C   LIG    1      189.265 106.083 152.336  0.00  0.00    -0.005 A 
ATOM     25  C   LIG    1      189.319 105.130 151.336  0.00  0.00    +0.015 A 
ATOM     26  C   LIG    1      190.445 104.390 151.543  0.00  0.00    +0.081 A 
ATOM     27  C   LIG    1      190.839 103.332 150.736  0.00  0.00    +0.019 A 
ATOM     28  C   LIG    1      190.060 103.002 149.666  0.00  0.00    +0.002 A 
ATOM     29  C   LIG    1      188.919 103.734 149.437  0.00  0.00    +0.000 A 
ATOM     30  C   LIG    1      188.535 104.794 150.257  0.00  0.00    +0.001 A 
ATOM     31  C   LIG    1      188.183 107.142 152.529  0.00  0.00    +0.045 C 
ATOM     32  C   LIG    1      188.320 108.223 151.474  0.00  0.00    +0.077 C 
ATOM     33  N   LIG    1      188.573 109.539 152.112  0.00  0.00    -0.270 NA
ATOM     34  C   LIG    1      189.331 110.379 151.252  0.00  0.00    +0.103 C 
ATOM     35  C   LIG    1      190.726 110.664 151.602  0.00  0.00    +0.141 C 
ATOM     36  C   LIG    1      191.523 109.631 152.287  0.00  0.00    +0.033 C 
ATOM     37  C   LIG    1      190.542 108.362 152.619  0.00  0.00    +0.020 C 
ATOM     38  O   LIG    1      190.860 111.864 152.348  0.00  0.00    -0.224 OA
ATOM     39  C   LIG    1      189.411 109.357 153.281  0.00  0.00    +0.072 C 
ATOM     40  N   LIG    1      191.038 104.876 152.615  0.00  0.00    -0.249 NA
ATOM     41  C   LIG    1      191.172 108.039 154.041  0.00  0.00    +0.022 C 
BRANCH  35  42
ATOM     42  C   LIG    1      191.474 110.971 150.287  0.00  0.00    +0.032 C 
ATOM     43  C   LIG    1      190.335 110.845 149.256  0.00  0.00    +0.003 C 
ENDBRANCH  35  42
BRANCH  22  44
ATOM     44  C   LIG    1      189.678 106.485 155.341  0.00  0.00    +0.325 C 
ATOM     45  O   LIG    1      189.195 105.350 155.466  0.00  0.00    -0.249 OA
BRANCH  44  46
ATOM     46  O   LIG    1      189.149 107.439 156.177  0.00  0.00    -0.444 OA
ATOM     47  C   LIG    1      187.751 107.633 156.218  0.00  0.00    +0.256 C 
ENDBRANCH  44  46
ENDBRANCH  22  44
ENDBRANCH  17  22
BRANCH   1  49
ATOM     48  C   LIG    1      192.549  99.690 157.880  0.00  0.00    +0.001 C 
ATOM     49  C   LIG    1      193.148  99.536 156.808  0.00  0.00    +0.009 C 
ENDBRANCH   1  49
BRANCH  10  50
ATOM     50  C   LIG    1      193.507 103.410 158.489  0.00  0.00    +0.350 C 
ATOM     51  O   LIG    1      193.832 104.156 159.467  0.00  0.00    -0.247 OA
BRANCH  50  52
ATOM     52  O   LIG    1      192.159 103.621 158.290  0.00  0.00    -0.443 OA
ATOM     53  C   LIG    1      191.379 104.721 158.621  0.00  0.00    +0.256 C 
ENDBRANCH  50  52
ENDBRANCH  10  50
BRANCH  16  54
ATOM     54  O   LIG    1      192.432 108.332 155.917  0.00  0.00    -0.472 OA
ATOM     55  C   LIG    1      193.012 109.030 157.007  0.00  0.00    +0.252 C 
ENDBRANCH  16  54
BRANCH  20  56
ATOM     56  O   LIG    1      195.798 100.683 158.123  0.00  0.00    -0.449 OA
BRANCH  56  57
ATOM     57  C   LIG    1      196.247  99.687 158.918  0.00  0.00    +0.318 C 
ATOM     58  O   LIG    1      196.537  99.899 160.118  0.00  0.00    -0.250 OA
ATOM     59  C   LIG    1      196.417  98.293 158.400  0.00  0.00    +0.121 C 
ENDBRANCH  56  57
ENDBRANCH  20  56
TORSDOF 10
ENDMDL
MODEL 5
REMARK VINA RESULT:      -7.5     15.243     19.398
REMARK  Name = 
REMARK                            x       y       z     vdW  Elec       q    Type
REMARK                         _______ _______ _______ _____ _____    ______ ____
ROOT
ATOM      1  C   LIG    1      189.035 103.314 150.354  0.00  0.00    +0.072 C 
ATOM      2  C   LIG    1      189.132 104.910 150.393  0.00  0.00    +0.070 C 
ATOM      3  N   LIG    1      189.576 105.027 151.870  0.00  0.00    -0.269 NA
ATOM      4  C   LIG    1      188.648 105.850 152.507  0.00  0.00    +0.073 C 
ATOM      5  C   LIG    1      187.362 105.108 152.112  0.00  0.00    +0.024 C 
ATOM      6  C   LIG    1      190.052 103.892 152.470  0.00  0.00    +0.099 C 
ATOM      7  C   LIG    1      188.928 102.881 152.579  0.00  0.00    -0.013 C 
ATOM      8  C   LIG    1      187.582 105.247 150.639  0.00  0.00    +0.055 C 
ATOM      9  C   LIG    1      186.741 104.116 149.891  0.00  0.00    +0.120 C 
ATOM     10  C   LIG    1      187.554 103.922 148.522  0.00  0.00    +0.268 C 
ATOM     11  O   LIG    1      186.546 103.122 147.941  0.00  0.00    -0.209 OA
ATOM     12  N   LIG    1      185.682 105.049 149.225  0.00  0.00    -0.304 N 
ATOM     13  C   LIG    1      184.526 104.514 148.564  0.00  0.00    +0.112 C 
ATOM     14  C   LIG    1      186.066 106.361 149.400  0.00  0.00    +0.047 A 
ATOM     15  C   LIG    1      185.476 107.479 148.862  0.00  0.00    +0.051 A 
ATOM     16  C   LIG    1      185.916 108.762 149.093  0.00  0.00    +0.137 A 
ATOM     17  C   LIG    1      187.002 108.906 149.907  0.00  0.00    +0.026 A 
ATOM     18  C   LIG    1      187.585 107.777 150.441  0.00  0.00    -0.003 A 
ATOM     19  C   LIG    1      187.147 106.493 150.211  0.00  0.00    -0.007 A 
ATOM     20  C   LIG    1      188.752 102.886 148.834  0.00  0.00    +0.213 C 
ATOM     21  C   LIG    1      188.452 102.645 151.355  0.00  0.00    -0.025 C 
ENDROOT
BRANCH  17  22
ATOM     22  C   LIG    1      187.507 110.290 150.217  0.00  0.00    +0.146 C 
ATOM     23  C   LIG    1      188.391 110.369 151.370  0.00  0.00    +0.068 A 
ATOM     24  C   LIG    1      189.076 111.431 151.855  0.00  0.00    -0.005 A 
ATOM     25  C   LIG    1      189.805 111.004 152.950  0.00  0.00    +0.015 A 
ATOM     26  C   LIG    1      189.549 109.675 153.114  0.00  0.00    +0.081 A 
ATOM     27  C   LIG    1      190.105 108.894 154.117  0.00  0.00    +0.019 A 
ATOM     28  C   LIG    1      190.962 109.481 155.001  0.00  0.00    +0.002 A 
ATOM     29  C   LIG    1      191.236 110.820 154.856  0.00  0.00    +0.000 A 
ATOM     30  C   LIG    1      190.671 111.592 153.842  0.00  0.00    +0.001 A 
ATOM     31  C   LIG    1      189.041 112.843 151.278  0.00  0.00    +0.045 C 
ATOM     32  C   LIG    1      188.249 113.758 152.191  0.00  0.00    +0.077 C 
ATOM     33  N   LIG    1      187.075 114.315 151.474  0.00  0.00    -0.270 NA
ATOM     34  C   LIG    1      186.014 114.591 152.380  0.00  0.00    +0.103 C 
ATOM     35  C   LIG    1      184.822 113.739 152.343  0.00  0.00    +0.141 C 
ATOM     36  C   LIG    1      184.966 112.311 152.003  0.00  0.00    +0.033 C 
ATOM     37  C   LIG    1      186.531 112.035 151.606  0.00  0.00    +0.020 C 
ATOM     38  O   LIG    1      183.806 114.270 151.506  0.00  0.00    -0.224 OA
ATOM     39  C   LIG    1      186.539 113.314 150.572  0.00  0.00    +0.072 C 
ATOM     40  N   LIG    1      188.706 109.322 152.164  0.00  0.00    -0.249 NA
ATOM     41  C   LIG    1      186.220 111.014 150.428  0.00  0.00    +0.022 C 
BRANCH  35  42
ATOM     42  C   LIG    1      184.189 113.776 153.749  0.00  0.00    +0.032 C 
ATOM     43  C   LIG    1      183.471 112.413 153.792  0.00  0.00    +0.003 C 
ENDBRANCH  35  42
BRANCH  22  44
ATOM     44  C   LIG    1      188.268 110.643 149.012  0.00  0.00    +0.325 C 
ATOM     45  O   LIG    1      187.728 111.435 148.227  0.00  0.00    -0.249 OA
BRANCH  44  46
ATOM     46  O   LIG    1      189.514 110.204 148.635  0.00  0.00    -0.444 OA
ATOM     47  C   LIG    1      190.538 111.144 148.383  0.00  0.00    +0.256 C 
ENDBRANCH  44  46
ENDBRANCH  22  44
ENDBRANCH  17  22
BRANCH   1  49
ATOM     48  C   LIG    1      190.960 102.957 149.158  0.00  0.00    +0.001 C 
ATOM     49  C   LIG    1      190.567 103.003 150.331  0.00  0.00    +0.009 C 
ENDBRANCH   1  49
BRANCH  10  50
ATOM     50  C   LIG    1      187.884 104.923 147.669  0.00  0.00    +0.350 C 
ATOM     51  O   LIG    1      187.184 104.957 146.608  0.00  0.00    -0.247 OA
BRANCH  50  52
ATOM     52  O   LIG    1      188.774 105.971 147.564  0.00  0.00    -0.443 OA
ATOM     53  C   LIG    1      188.612 107.208 146.955  0.00  0.00    +0.256 C 
ENDBRANCH  50  52
ENDBRANCH  10  50
BRANCH  16  54
ATOM     54  O   LIG    1      185.250 109.860 148.493  0.00  0.00    -0.472 OA
ATOM     55  C   LIG    1      183.874 109.726 148.173  0.00  0.00    +0.252 C 
ENDBRANCH  16  54
BRANCH  20  56
ATOM     56  O   LIG    1      187.931 101.671 149.167  0.00  0.00    -0.449 OA
BRANCH  56  57
ATOM     57  C   LIG    1      188.232 100.457 148.656  0.00  0.00    +0.318 C 
ATOM     58  O   LIG    1      189.144 100.320 147.808  0.00  0.00    -0.250 OA
ATOM     59  C   LIG    1      187.490  99.228 149.080  0.00  0.00    +0.121 C 
ENDBRANCH  56  57
ENDBRANCH  20  56
TORSDOF 10
ENDMDL
MODEL 6
REMARK VINA RESULT:      -7.3      2.845      5.273
REMARK  Name = 
REMARK                            x       y       z     vdW  Elec       q    Type
REMARK                         _______ _______ _______ _____ _____    ______ ____
ROOT
ATOM      1  C   LIG    1      200.088 115.672 143.044  0.00  0.00    +0.072 C 
ATOM      2  C   LIG    1      199.689 115.900 141.512  0.00  0.00    +0.070 C 
ATOM      3  N   LIG    1      198.836 114.620 141.356  0.00  0.00    -0.269 NA
ATOM      4  C   LIG    1      199.380 113.900 140.291  0.00  0.00    +0.073 C 
ATOM      5  C   LIG    1      200.840 113.839 140.767  0.00  0.00    +0.024 C 
ATOM      6  C   LIG    1      198.431 113.995 142.505  0.00  0.00    +0.099 C 
ATOM      7  C   LIG    1      199.647 113.453 143.229  0.00  0.00    -0.013 C 
ATOM      8  C   LIG    1      201.019 115.323 140.821  0.00  0.00    +0.055 C 
ATOM      9  C   LIG    1      202.230 115.653 141.806  0.00  0.00    +0.120 C 
ATOM     10  C   LIG    1      201.883 117.138 142.304  0.00  0.00    +0.268 C 
ATOM     11  O   LIG    1      203.143 117.317 142.915  0.00  0.00    -0.209 OA
ATOM     12  N   LIG    1      203.240 116.162 140.731  0.00  0.00    -0.304 N 
ATOM     13  C   LIG    1      204.613 116.419 141.059  0.00  0.00    +0.112 C 
ATOM     14  C   LIG    1      202.586 116.290 139.525  0.00  0.00    +0.047 A 
ATOM     15  C   LIG    1      203.084 116.824 138.362  0.00  0.00    +0.051 A 
ATOM     16  C   LIG    1      202.367 116.910 137.190  0.00  0.00    +0.137 A 
ATOM     17  C   LIG    1      201.091 116.428 137.211  0.00  0.00    +0.026 A 
ATOM     18  C   LIG    1      200.601 115.895 138.385  0.00  0.00    -0.003 A 
ATOM     19  C   LIG    1      201.316 115.810 139.557  0.00  0.00    -0.007 A 
ATOM     20  C   LIG    1      200.859 116.987 143.543  0.00  0.00    +0.213 C 
ATOM     21  C   LIG    1      200.482 114.466 143.470  0.00  0.00    -0.025 C 
ENDROOT
BRANCH  17  22
ATOM     22  C   LIG    1      200.271 116.470 135.948  0.00  0.00    +0.146 C 
ATOM     23  C   LIG    1      198.963 115.841 136.054  0.00  0.00    +0.068 A 
ATOM     24  C   LIG    1      197.962 115.785 135.143  0.00  0.00    -0.005 A 
ATOM     25  C   LIG    1      196.903 115.104 135.717  0.00  0.00    +0.015 A 
ATOM     26  C   LIG    1      197.282 114.755 136.979  0.00  0.00    +0.081 A 
ATOM     27  C   LIG    1      196.476 114.055 137.866  0.00  0.00    +0.019 A 
ATOM     28  C   LIG    1      195.225 113.688 137.462  0.00  0.00    +0.002 A 
ATOM     29  C   LIG    1      194.822 114.030 136.193  0.00  0.00    +0.000 A 
ATOM     30  C   LIG    1      195.642 114.734 135.312  0.00  0.00    +0.001 A 
ATOM     31  C   LIG    1      198.012 116.378 133.739  0.00  0.00    +0.045 C 
ATOM     32  C   LIG    1      198.137 115.271 132.711  0.00  0.00    +0.077 C 
ATOM     33  N   LIG    1      199.393 115.425 131.935  0.00  0.00    -0.270 NA
ATOM     34  C   LIG    1      199.866 114.161 131.486  0.00  0.00    +0.103 C 
ATOM     35  C   LIG    1      201.073 113.606 132.105  0.00  0.00    +0.141 C 
ATOM     36  C   LIG    1      201.345 113.877 133.528  0.00  0.00    +0.033 C 
ATOM     37  C   LIG    1      200.201 114.912 134.080  0.00  0.00    +0.020 C 
ATOM     38  O   LIG    1      202.250 113.934 131.382  0.00  0.00    -0.224 OA
ATOM     39  C   LIG    1      200.441 115.923 132.805  0.00  0.00    +0.072 C 
ATOM     40  N   LIG    1      198.508 115.203 137.154  0.00  0.00    -0.249 NA
ATOM     41  C   LIG    1      201.179 115.756 135.005  0.00  0.00    +0.022 C 
BRANCH  35  42
ATOM     42  C   LIG    1      200.987 112.070 131.978  0.00  0.00    +0.032 C 
ATOM     43  C   LIG    1      201.804 111.620 133.205  0.00  0.00    +0.003 C 
ENDBRANCH  35  42
BRANCH  22  44
ATOM     44  C   LIG    1      200.088 117.909 135.720  0.00  0.00    +0.325 C 
ATOM     45  O   LIG    1      199.471 118.535 136.593  0.00  0.00    -0.249 OA
BRANCH  44  46
ATOM     46  O   LIG    1      200.515 118.661 134.653  0.00  0.00    -0.444 OA
ATOM     47  C   LIG    1      199.686 119.686 134.146  0.00  0.00    +0.256 C 
ENDBRANCH  44  46
ENDBRANCH  22  44
ENDBRANCH  17  22
BRANCH   1  49
ATOM     48  C   LIG    1      198.565 117.264 143.680  0.00  0.00    +0.001 C 
ATOM     49  C   LIG    1      198.709 116.035 143.685  0.00  0.00    +0.009 C 
ENDBRANCH   1  49
BRANCH  10  50
ATOM     50  C   LIG    1      201.624 118.188 141.485  0.00  0.00    +0.350 C 
ATOM     51  O   LIG    1      202.557 119.050 141.432  0.00  0.00    -0.247 OA
BRANCH  50  52
ATOM     52  O   LIG    1      200.633 118.657 140.649  0.00  0.00    -0.443 OA
ATOM     53  C   LIG    1      199.902 119.836 140.721  0.00  0.00    +0.256 C 
ENDBRANCH  50  52
ENDBRANCH  10  50
BRANCH  16  54
ATOM     54  O   LIG    1      202.959 117.480 136.035  0.00  0.00    -0.472 OA
ATOM     55  C   LIG    1      204.370 117.626 135.997  0.00  0.00    +0.252 C 
ENDBRANCH  16  54
BRANCH  20  56
ATOM     56  O   LIG    1      201.764 116.277 144.510  0.00  0.00    -0.449 OA
BRANCH  56  57
ATOM     57  C   LIG    1      201.575 116.364 145.845  0.00  0.00    +0.318 C 
ATOM     58  O   LIG    1      201.921 115.433 146.609  0.00  0.00    -0.250 OA
ATOM     59  C   LIG    1      200.945 117.571 146.466  0.00  0.00    +0.121 C 
ENDBRANCH  56  57
ENDBRANCH  20  56
TORSDOF 10
ENDMDL
MODEL 7
REMARK VINA RESULT:      -7.3     41.309     45.605
REMARK  Name = 
REMARK                            x       y       z     vdW  Elec       q    Type
REMARK                         _______ _______ _______ _____ _____    ______ ____
ROOT
ATOM      1  C   LIG    1      181.436 140.935 166.328  0.00  0.00    +0.072 C 
ATOM      2  C   LIG    1      181.193 142.477 166.676  0.00  0.00    +0.070 C 
ATOM      3  N   LIG    1      180.840 142.270 168.167  0.00  0.00    -0.269 NA
ATOM      4  C   LIG    1      179.581 142.838 168.367  0.00  0.00    +0.073 C 
ATOM      5  C   LIG    1      178.814 142.111 167.252  0.00  0.00    +0.024 C 
ATOM      6  C   LIG    1      181.175 141.067 168.727  0.00  0.00    +0.099 C 
ATOM      7  C   LIG    1      180.356 139.971 168.076  0.00  0.00    -0.013 C 
ATOM      8  C   LIG    1      179.684 142.617 166.146  0.00  0.00    +0.055 C 
ATOM      9  C   LIG    1      179.542 141.634 164.896  0.00  0.00    +0.120 C 
ATOM     10  C   LIG    1      180.934 141.843 164.126  0.00  0.00    +0.268 C 
ATOM     11  O   LIG    1      180.505 141.126 162.988  0.00  0.00    -0.209 OA
ATOM     12  N   LIG    1      178.778 142.611 163.949  0.00  0.00    -0.304 N 
ATOM     13  C   LIG    1      178.210 142.158 162.711  0.00  0.00    +0.112 C 
ATOM     14  C   LIG    1      178.770 143.869 164.512  0.00  0.00    +0.047 A 
ATOM     15  C   LIG    1      178.311 145.031 163.942  0.00  0.00    +0.051 A 
ATOM     16  C   LIG    1      178.329 146.253 164.576  0.00  0.00    +0.137 A 
ATOM     17  C   LIG    1      178.838 146.285 165.842  0.00  0.00    +0.026 A 
ATOM     18  C   LIG    1      179.297 145.112 166.402  0.00  0.00    -0.003 A 
ATOM     19  C   LIG    1      179.279 143.890 165.770  0.00  0.00    -0.007 A 
ATOM     20  C   LIG    1      182.007 140.863 164.830  0.00  0.00    +0.213 C 
ATOM     21  C   LIG    1      180.583 139.999 166.761  0.00  0.00    -0.025 C 
ENDROOT
BRANCH  17  22
ATOM     22  C   LIG    1      178.855 147.590 166.592  0.00  0.00    +0.146 C 
ATOM     23  C   LIG    1      177.553 148.031 167.070  0.00  0.00    +0.068 A 
ATOM     24  C   LIG    1      177.239 149.098 167.842  0.00  0.00    -0.005 A 
ATOM     25  C   LIG    1      175.872 149.082 168.056  0.00  0.00    +0.015 A 
ATOM     26  C   LIG    1      175.374 147.994 167.404  0.00  0.00    +0.081 A 
ATOM     27  C   LIG    1      174.031 147.645 167.389  0.00  0.00    +0.019 A 
ATOM     28  C   LIG    1      173.144 148.431 168.065  0.00  0.00    +0.002 A 
ATOM     29  C   LIG    1      173.625 149.535 168.731  0.00  0.00    +0.000 A 
ATOM     30  C   LIG    1      174.977 149.873 168.737  0.00  0.00    +0.001 A 
ATOM     31  C   LIG    1      178.233 150.125 168.376  0.00  0.00    +0.045 C 
ATOM     32  C   LIG    1      178.078 151.436 167.631  0.00  0.00    +0.077 C 
ATOM     33  N   LIG    1      179.340 151.787 166.934  0.00  0.00    -0.270 NA
ATOM     34  C   LIG    1      179.075 152.557 165.768  0.00  0.00    +0.103 C 
ATOM     35  C   LIG    1      179.276 151.935 164.457  0.00  0.00    +0.141 C 
ATOM     36  C   LIG    1      179.017 150.493 164.295  0.00  0.00    +0.033 C 
ATOM     37  C   LIG    1      178.651 149.870 165.765  0.00  0.00    +0.020 C 
ATOM     38  O   LIG    1      180.570 152.192 163.931  0.00  0.00    -0.224 OA
ATOM     39  C   LIG    1      179.973 150.579 166.441  0.00  0.00    +0.072 C 
ATOM     40  N   LIG    1      176.391 147.387 166.826  0.00  0.00    -0.249 NA
ATOM     41  C   LIG    1      179.426 148.498 165.556  0.00  0.00    +0.022 C 
BRANCH  35  42
ATOM     42  C   LIG    1      178.335 152.647 163.463  0.00  0.00    +0.032 C 
ATOM     43  C   LIG    1      177.149 151.663 163.413  0.00  0.00    +0.003 C 
ENDBRANCH  35  42
BRANCH  22  44
ATOM     44  C   LIG    1      179.709 147.296 167.749  0.00  0.00    +0.325 C 
ATOM     45  O   LIG    1      180.927 147.471 167.599  0.00  0.00    -0.249 OA
BRANCH  44  46
ATOM     46  O   LIG    1      179.333 146.846 168.991  0.00  0.00    -0.444 OA
ATOM     47  C   LIG    1      180.054 147.263 170.133  0.00  0.00    +0.256 C 
ENDBRANCH  44  46
ENDBRANCH  22  44
ENDBRANCH  17  22
BRANCH   1  49
ATOM     48  C   LIG    1      183.705 141.265 166.340  0.00  0.00    +0.001 C 
ATOM     49  C   LIG    1      182.816 140.764 167.040  0.00  0.00    +0.009 C 
ENDBRANCH   1  49
BRANCH  10  50
ATOM     50  C   LIG    1      181.435 143.043 163.744  0.00  0.00    +0.350 C 
ATOM     51  O   LIG    1      181.380 143.256 162.491  0.00  0.00    -0.247 OA
BRANCH  50  52
ATOM     52  O   LIG    1      182.015 144.168 164.290  0.00  0.00    -0.443 OA
ATOM     53  C   LIG    1      182.074 145.462 163.788  0.00  0.00    +0.256 C 
ENDBRANCH  50  52
ENDBRANCH  10  50
BRANCH  16  54
ATOM     54  O   LIG    1      177.837 147.405 163.912  0.00  0.00    -0.472 OA
ATOM     55  C   LIG    1      176.615 147.306 163.197  0.00  0.00    +0.252 C 
ENDBRANCH  16  54
BRANCH  20  56
ATOM     56  O   LIG    1      181.378 139.541 164.489  0.00  0.00    -0.449 OA
BRANCH  56  57
ATOM     57  C   LIG    1      182.123 138.493 164.074  0.00  0.00    +0.318 C 
ATOM     58  O   LIG    1      183.065 138.053 164.773  0.00  0.00    -0.250 OA
ATOM     59  C   LIG    1      181.856 137.816 162.766  0.00  0.00    +0.121 C 
ENDBRANCH  56  57
ENDBRANCH  20  56
TORSDOF 10
ENDMDL
MODEL 8
REMARK VINA RESULT:      -7.2     22.423     27.390
REMARK  Name = 
REMARK                            x       y       z     vdW  Elec       q    Type
REMARK                         _______ _______ _______ _____ _____    ______ ____
ROOT
ATOM      1  C   LIG    1      205.062  92.094 158.106  0.00  0.00    +0.072 C 
ATOM      2  C   LIG    1      205.177  93.384 159.046  0.00  0.00    +0.070 C 
ATOM      3  N   LIG    1      205.714  92.649 160.295  0.00  0.00    -0.269 NA
ATOM      4  C   LIG    1      204.837  92.934 161.341  0.00  0.00    +0.073 C 
ATOM      5  C   LIG    1      203.521  92.516 160.667  0.00  0.00    +0.024 C 
ATOM      6  C   LIG    1      206.215  91.388 160.110  0.00  0.00    +0.099 C 
ATOM      7  C   LIG    1      205.091  90.465 159.686  0.00  0.00    -0.013 C 
ATOM      8  C   LIG    1      203.648  93.477 159.528  0.00  0.00    +0.055 C 
ATOM      9  C   LIG    1      202.751  92.953 158.317  0.00  0.00    +0.120 C 
ATOM     10  C   LIG    1      203.474  93.598 157.039  0.00  0.00    +0.268 C 
ATOM     11  O   LIG    1      202.424  93.245 156.164  0.00  0.00    -0.209 OA
ATOM     12  N   LIG    1      201.662  94.070 158.367  0.00  0.00    -0.304 N 
ATOM     13  C   LIG    1      200.461  93.976 157.587  0.00  0.00    +0.112 C 
ATOM     14  C   LIG    1      202.070  95.056 159.238  0.00  0.00    +0.047 A 
ATOM     15  C   LIG    1      201.458  96.264 159.470  0.00  0.00    +0.051 A 
ATOM     16  C   LIG    1      201.925  97.198 160.368  0.00  0.00    +0.137 A 
ATOM     17  C   LIG    1      203.061  96.881 161.054  0.00  0.00    +0.026 A 
ATOM     18  C   LIG    1      203.665  95.666 160.812  0.00  0.00    -0.003 A 
ATOM     19  C   LIG    1      203.200  94.732 159.915  0.00  0.00    -0.007 A 
ATOM     20  C   LIG    1      204.679  92.603 156.634  0.00  0.00    +0.213 C 
ATOM     21  C   LIG    1      204.536  90.957 158.577  0.00  0.00    -0.025 C 
ENDROOT
BRANCH  17  22
ATOM     22  C   LIG    1      203.598  97.854 162.070  0.00  0.00    +0.146 C 
ATOM     23  C   LIG    1      203.745  99.218 161.584  0.00  0.00    +0.068 A 
ATOM     24  C   LIG    1      204.111 100.334 162.259  0.00  0.00    -0.005 A 
ATOM     25  C   LIG    1      204.076 101.396 161.374  0.00  0.00    +0.015 A 
ATOM     26  C   LIG    1      203.684 100.904 160.165  0.00  0.00    +0.081 A 
ATOM     27  C   LIG    1      203.533 101.677 159.023  0.00  0.00    +0.019 A 
ATOM     28  C   LIG    1      203.788 103.015 159.102  0.00  0.00    +0.002 A 
ATOM     29  C   LIG    1      204.185 103.535 160.312  0.00  0.00    +0.000 A 
ATOM     30  C   LIG    1      204.332 102.745 161.451  0.00  0.00    +0.001 A 
ATOM     31  C   LIG    1      204.489 100.389 163.736  0.00  0.00    +0.045 C 
ATOM     32  C   LIG    1      205.984 100.591 163.883  0.00  0.00    +0.077 C 
ATOM     33  N   LIG    1      206.591  99.450 164.612  0.00  0.00    -0.270 NA
ATOM     34  C   LIG    1      207.941  99.255 164.210  0.00  0.00    +0.103 C 
ATOM     35  C   LIG    1      208.267  98.078 163.399  0.00  0.00    +0.141 C 
ATOM     36  C   LIG    1      207.274  97.567 162.437  0.00  0.00    +0.033 C 
ATOM     37  C   LIG    1      205.898  98.439 162.608  0.00  0.00    +0.020 C 
ATOM     38  O   LIG    1      208.690  96.978 164.191  0.00  0.00    -0.224 OA
ATOM     39  C   LIG    1      205.915  98.223 164.239  0.00  0.00    +0.072 C 
ATOM     40  N   LIG    1      203.495  99.609 160.316  0.00  0.00    -0.249 NA
ATOM     41  C   LIG    1      204.905  97.216 162.400  0.00  0.00    +0.022 C 
BRANCH  35  42
ATOM     42  C   LIG    1      209.519  98.427 162.567  0.00  0.00    +0.032 C 
ATOM     43  C   LIG    1      209.774  99.883 163.004  0.00  0.00    +0.003 C 
ENDBRANCH  35  42
BRANCH  22  44
ATOM     44  C   LIG    1      202.574  97.833 163.122  0.00  0.00    +0.325 C 
ATOM     45  O   LIG    1      202.670  96.938 163.973  0.00  0.00    -0.249 OA
BRANCH  44  46
ATOM     46  O   LIG    1      201.509  98.686 163.289  0.00  0.00    -0.444 OA
ATOM     47  C   LIG    1      200.215  98.156 163.487  0.00  0.00    +0.256 C 
ENDBRANCH  44  46
ENDBRANCH  22  44
ENDBRANCH  17  22
BRANCH   1  49
ATOM     48  C   LIG    1      206.956  92.716 156.974  0.00  0.00    +0.001 C 
ATOM     49  C   LIG    1      206.585  91.894 157.822  0.00  0.00    +0.009 C 
ENDBRANCH   1  49
BRANCH  10  50
ATOM     50  C   LIG    1      203.760  94.915 156.895  0.00  0.00    +0.350 C 
ATOM     51  O   LIG    1      203.022  95.521 156.055  0.00  0.00    -0.247 OA
BRANCH  50  52
ATOM     52  O   LIG    1      204.632  95.867 157.381  0.00  0.00    -0.443 OA
ATOM     53  C   LIG    1      205.821  96.334 156.836  0.00  0.00    +0.256 C 
ENDBRANCH  50  52
ENDBRANCH  10  50
BRANCH  16  54
ATOM     54  O   LIG    1      201.233  98.423 160.542  0.00  0.00    -0.472 OA
ATOM     55  C   LIG    1      200.038  98.638 159.808  0.00  0.00    +0.252 C 
ENDBRANCH  16  54
BRANCH  20  56
ATOM     56  O   LIG    1      203.869  91.393 156.259  0.00  0.00    -0.449 OA
BRANCH  56  57
ATOM     57  C   LIG    1      204.097  90.721 155.109  0.00  0.00    +0.318 C 
ATOM     58  O   LIG    1      203.215  90.638 154.224  0.00  0.00    -0.250 OA
ATOM     59  C   LIG    1      205.408  90.050 154.846  0.00  0.00    +0.121 C 
ENDBRANCH  56  57
ENDBRANCH  20  56
TORSDOF 10
ENDMDL
MODEL 9
REMARK VINA RESULT:      -7.2     16.521     22.548
REMARK  Name = 
REMARK                            x       y       z     vdW  Elec       q    Type
REMARK                         _______ _______ _______ _____ _____    ______ ____
ROOT
ATOM      1  C   LIG    1      204.024  97.250 161.888  0.00  0.00    +0.072 C 
ATOM      2  C   LIG    1      203.540  98.282 160.766  0.00  0.00    +0.070 C 
ATOM      3  N   LIG    1      203.743  97.340 159.557  0.00  0.00    -0.269 NA
ATOM      4  C   LIG    1      204.603  97.995 158.675  0.00  0.00    +0.073 C 
ATOM      5  C   LIG    1      205.749  98.308 159.650  0.00  0.00    +0.024 C 
ATOM      6  C   LIG    1      203.877  96.004 159.822  0.00  0.00    +0.099 C 
ATOM      7  C   LIG    1      205.163  95.777 160.591  0.00  0.00    -0.013 C 
ATOM      8  C   LIG    1      204.904  99.111 160.587  0.00  0.00    +0.055 C 
ATOM      9  C   LIG    1      205.616  99.139 162.015  0.00  0.00    +0.120 C 
ATOM     10  C   LIG    1      204.386  99.375 163.016  0.00  0.00    +0.268 C 
ATOM     11  O   LIG    1      205.227  99.619 164.124  0.00  0.00    -0.209 OA
ATOM     12  N   LIG    1      206.015 100.648 162.019  0.00  0.00    -0.304 N 
ATOM     13  C   LIG    1      206.883 101.188 163.026  0.00  0.00    +0.112 C 
ATOM     14  C   LIG    1      205.413 101.274 160.949  0.00  0.00    +0.047 A 
ATOM     15  C   LIG    1      205.409 102.618 160.668  0.00  0.00    +0.051 A 
ATOM     16  C   LIG    1      204.789 103.169 159.569  0.00  0.00    +0.137 A 
ATOM     17  C   LIG    1      204.149 102.308 158.725  0.00  0.00    +0.026 A 
ATOM     18  C   LIG    1      204.159 100.960 159.018  0.00  0.00    -0.003 A 
ATOM     19  C   LIG    1      204.778 100.409 160.117  0.00  0.00    -0.007 A 
ATOM     20  C   LIG    1      203.745  97.925 163.317  0.00  0.00    +0.213 C 
ATOM     21  C   LIG    1      205.125  96.513 161.703  0.00  0.00    -0.025 C 
ENDROOT
BRANCH  17  22
ATOM     22  C   LIG    1      203.480 102.853 157.492  0.00  0.00    +0.146 C 
ATOM     23  C   LIG    1      203.268 101.875 156.435  0.00  0.00    +0.068 A 
ATOM     24  C   LIG    1      202.623 102.016 155.252  0.00  0.00    -0.005 A 
ATOM     25  C   LIG    1      202.658 100.796 154.601  0.00  0.00    +0.015 A 
ATOM     26  C   LIG    1      203.330  99.926 155.406  0.00  0.00    +0.081 A 
ATOM     27  C   LIG    1      203.567  98.596 155.086  0.00  0.00    +0.019 A 
ATOM     28  C   LIG    1      203.104  98.119 153.895  0.00  0.00    +0.002 A 
ATOM     29  C   LIG    1      202.424  98.979 153.066  0.00  0.00    +0.000 A 
ATOM     30  C   LIG    1      202.193 100.312 153.400  0.00  0.00    +0.001 A 
ATOM     31  C   LIG    1      201.975 103.302 154.747  0.00  0.00    +0.045 C 
ATOM     32  C   LIG    1      202.805 103.898 153.628  0.00  0.00    +0.077 C 
ATOM     33  N   LIG    1      203.283 105.252 154.003  0.00  0.00    -0.270 NA
ATOM     34  C   LIG    1      204.516 105.548 153.361  0.00  0.00    +0.103 C 
ATOM     35  C   LIG    1      205.735 105.596 154.174  0.00  0.00    +0.141 C 
ATOM     36  C   LIG    1      205.863 104.697 155.336  0.00  0.00    +0.033 C 
ATOM     37  C   LIG    1      204.451 103.885 155.514  0.00  0.00    +0.020 C 
ATOM     38  O   LIG    1      206.033 106.909 154.624  0.00  0.00    -0.224 OA
ATOM     39  C   LIG    1      203.588 105.283 155.420  0.00  0.00    +0.072 C 
ATOM     40  N   LIG    1      203.681 100.590 156.488  0.00  0.00    -0.249 NA
ATOM     41  C   LIG    1      204.443 103.922 157.102  0.00  0.00    +0.022 C 
BRANCH  35  42
ATOM     42  C   LIG    1      206.919 105.255 153.245  0.00  0.00    +0.032 C 
ATOM     43  C   LIG    1      206.446 103.923 152.630  0.00  0.00    +0.003 C 
ENDBRANCH  35  42
BRANCH  22  44
ATOM     44  C   LIG    1      202.173 103.298 157.994  0.00  0.00    +0.325 C 
ATOM     45  O   LIG    1      201.369 102.410 158.312  0.00  0.00    -0.249 OA
BRANCH  44  46
ATOM     46  O   LIG    1      201.719 104.584 158.160  0.00  0.00    -0.444 OA
ATOM     47  C   LIG    1      200.424 104.930 157.716  0.00  0.00    +0.256 C 
ENDBRANCH  44  46
ENDBRANCH  22  44
ENDBRANCH  17  22
BRANCH   1  49
ATOM     48  C   LIG    1      201.854  96.873 162.528  0.00  0.00    +0.001 C 
ATOM     49  C   LIG    1      202.763  96.325 161.893  0.00  0.00    +0.009 C 
ENDBRANCH   1  49
BRANCH  10  50
ATOM     50  C   LIG    1      203.480 100.378 162.906  0.00  0.00    +0.350 C 
ATOM     51  O   LIG    1      203.548 101.246 163.833  0.00  0.00    -0.247 OA
BRANCH  50  52
ATOM     52  O   LIG    1      202.455 100.791 162.082  0.00  0.00    -0.443 OA
ATOM     53  C   LIG    1      201.095 100.526 162.164  0.00  0.00    +0.256 C 
ENDBRANCH  50  52
ENDBRANCH  10  50
BRANCH  16  54
ATOM     54  O   LIG    1      204.831 104.570 159.357  0.00  0.00    -0.472 OA
ATOM     55  C   LIG    1      205.842 105.324 160.006  0.00  0.00    +0.252 C 
ENDBRANCH  16  54
BRANCH  20  56
ATOM     56  O   LIG    1      204.914  97.291 164.017  0.00  0.00    -0.449 OA
BRANCH  56  57
ATOM     57  C   LIG    1      204.770  96.672 165.210  0.00  0.00    +0.318 C 
ATOM     58  O   LIG    1      203.636  96.492 165.711  0.00  0.00    -0.250 OA
ATOM     59  C   LIG    1      205.954  96.178 165.980  0.00  0.00    +0.121 C 
ENDBRANCH  56  57
ENDBRANCH  20  56
TORSDOF 10
ENDMDL
