REMARK VINA RESULT:      -6.2     74.433     77.299
REMARK  Name = ZINC000049399659
REMARK                            x       y       z     vdW  Elec       q    Type
REMARK                         _______ _______ _______ _____ _____    ______ ____
ROOT
ATOM      1  C   LIG    1      194.855  87.995 158.433  0.00  0.00    +0.173 C 
ENDROOT
BRANCH   1   4
ATOM      2  N   LIG    1      196.125  90.031 157.891  0.00  0.00    -0.282 N 
ATOM      3  H   LIG    1      195.763  89.844 156.944  0.00  0.00    +0.155 HD
ATOM      4  C   LIG    1      195.834  89.078 158.834  0.00  0.00    +0.228 C 
ATOM      5  O   LIG    1      196.348  89.103 159.934  0.00  0.00    -0.275 OA
BRANCH   2   7
ATOM      6  C   LIG    1      196.305  92.386 158.334  0.00  0.00    +0.141 A 
ATOM      7  C   LIG    1      196.949  91.190 157.977  0.00  0.00    +0.077 A 
ATOM      8  C   LIG    1      198.327  91.177 157.748  0.00  0.00    +0.047 A 
ATOM      9  C   LIG    1      199.048  92.366 157.862  0.00  0.00    +0.043 A 
ATOM     10 CL   LIG    1      200.755  92.368 157.579  0.00  0.00    -0.083 Cl
ATOM     11  C   LIG    1      198.406  93.559 158.207  0.00  0.00    +0.024 A 
ATOM     12  C   LIG    1      197.034  93.571 158.445  0.00  0.00    +0.049 A 
BRANCH   6  14
ATOM     13  C   LIG    1      193.922  92.944 157.723  0.00  0.00    +0.277 C 
ATOM     14  O   LIG    1      194.930  92.351 158.575  0.00  0.00    -0.493 OA
ENDBRANCH   6  14
ENDBRANCH   2   7
ENDBRANCH   1   4
BRANCH   1  15
ATOM     15  S   LIG    1      193.871  88.676 157.043  0.00  0.00    -0.077 S 
BRANCH  15  16
ATOM     16  C   LIG    1      192.242  88.509 157.619  0.00  0.00    +0.190 A 
ATOM     17  N   LIG    1      191.615  87.356 157.383  0.00  0.00    -0.207 NA
ATOM     18  C   LIG    1      190.376  87.222 157.822  0.00  0.00    +0.126 A 
ATOM     19  C   LIG    1      189.742  88.250 158.512  0.00  0.00    +0.063 A 
ATOM     20  C   LIG    1      190.440  89.420 158.717  0.00  0.00    +0.117 A 
ATOM     21  N   LIG    1      191.682  89.547 158.270  0.00  0.00    -0.230 NA
BRANCH  18  22
ATOM     22  N   LIG    1      189.711  86.023 157.586  0.00  0.00    -0.315 N 
ATOM     23  C   LIG    1      190.040  85.335 156.323  0.00  0.00    +0.106 C 
ATOM     24  C   LIG    1      188.801  84.496 155.959  0.00  0.00    +0.019 C 
ATOM     25  C   LIG    1      188.557  83.491 157.098  0.00  0.00    +0.003 C 
ATOM     26  C   LIG    1      188.294  84.248 158.410  0.00  0.00    +0.019 C 
ATOM     27  C   LIG    1      189.534  85.104 158.733  0.00  0.00    +0.106 C 
ENDBRANCH  18  22
ENDBRANCH  15  16
ENDBRANCH   1  15
TORSDOF 6
