REMARK VINA RESULT:      -4.2     72.380     73.573
REMARK  Name = 
REMARK                            x       y       z     vdW  Elec       q    Type
REMARK                         _______ _______ _______ _____ _____    ______ ____
ROOT
ATOM      1  C   LIG    1      198.282  93.776 126.611  0.00  0.00    +0.160 A 
ATOM      2  N   LIG    1      198.354  93.153 125.422  0.00  0.00    -0.236 NA
ATOM      3  C   LIG    1      198.091  93.775 124.265  0.00  0.00    +0.120 A 
ATOM      4  C   LIG    1      197.729  95.106 124.228  0.00  0.00    +0.120 A 
ATOM      5  N   LIG    1      197.654  95.741 125.410  0.00  0.00    -0.239 NA
ATOM      6  C   LIG    1      197.918  95.118 126.574  0.00  0.00    +0.123 A 
ENDROOT
BRANCH   1   8
ATOM      7  N   LIG    1      199.724  92.628 128.193  0.00  0.00    -0.101 NA
ATOM      8  C   LIG    1      198.571  93.083 127.858  0.00  0.00    +0.316 C 
ATOM      9  O   LIG    1      197.535  92.897 128.755  0.00  0.00    -0.262 OA
ENDBRANCH   1   8
TORSDOF 1
