REMARK VINA RESULT:      -4.2     44.803     45.894
REMARK  Name = 
REMARK                            x       y       z     vdW  Elec       q    Type
REMARK                         _______ _______ _______ _____ _____    ______ ____
ROOT
ATOM      1  C   LIG    1      182.895 113.117 145.963  0.00  0.00    +0.160 A 
ATOM      2  N   LIG    1      183.926 112.283 145.744  0.00  0.00    -0.236 NA
ATOM      3  C   LIG    1      185.188 112.596 146.069  0.00  0.00    +0.120 A 
ATOM      4  C   LIG    1      185.503 113.803 146.655  0.00  0.00    +0.120 A 
ATOM      5  N   LIG    1      184.482 114.646 146.881  0.00  0.00    -0.239 NA
ATOM      6  C   LIG    1      183.213 114.335 146.555  0.00  0.00    +0.123 A 
ENDROOT
BRANCH   1   8
ATOM      7  N   LIG    1      181.193 111.685 144.989  0.00  0.00    -0.101 NA
ATOM      8  C   LIG    1      181.531 112.760 145.603  0.00  0.00    +0.316 C 
ATOM      9  O   LIG    1      180.517 113.637 145.944  0.00  0.00    -0.262 OA
ENDBRANCH   1   8
TORSDOF 1
