REMARK VINA RESULT:      -7.2     22.423     27.390
REMARK  Name = 
REMARK                            x       y       z     vdW  Elec       q    Type
REMARK                         _______ _______ _______ _____ _____    ______ ____
ROOT
ATOM      1  C   LIG    1      205.062  92.094 158.106  0.00  0.00    +0.072 C 
ATOM      2  C   LIG    1      205.177  93.384 159.046  0.00  0.00    +0.070 C 
ATOM      3  N   LIG    1      205.714  92.649 160.295  0.00  0.00    -0.269 NA
ATOM      4  C   LIG    1      204.837  92.934 161.341  0.00  0.00    +0.073 C 
ATOM      5  C   LIG    1      203.521  92.516 160.667  0.00  0.00    +0.024 C 
ATOM      6  C   LIG    1      206.215  91.388 160.110  0.00  0.00    +0.099 C 
ATOM      7  C   LIG    1      205.091  90.465 159.686  0.00  0.00    -0.013 C 
ATOM      8  C   LIG    1      203.648  93.477 159.528  0.00  0.00    +0.055 C 
ATOM      9  C   LIG    1      202.751  92.953 158.317  0.00  0.00    +0.120 C 
ATOM     10  C   LIG    1      203.474  93.598 157.039  0.00  0.00    +0.268 C 
ATOM     11  O   LIG    1      202.424  93.245 156.164  0.00  0.00    -0.209 OA
ATOM     12  N   LIG    1      201.662  94.070 158.367  0.00  0.00    -0.304 N 
ATOM     13  C   LIG    1      200.461  93.976 157.587  0.00  0.00    +0.112 C 
ATOM     14  C   LIG    1      202.070  95.056 159.238  0.00  0.00    +0.047 A 
ATOM     15  C   LIG    1      201.458  96.264 159.470  0.00  0.00    +0.051 A 
ATOM     16  C   LIG    1      201.925  97.198 160.368  0.00  0.00    +0.137 A 
ATOM     17  C   LIG    1      203.061  96.881 161.054  0.00  0.00    +0.026 A 
ATOM     18  C   LIG    1      203.665  95.666 160.812  0.00  0.00    -0.003 A 
ATOM     19  C   LIG    1      203.200  94.732 159.915  0.00  0.00    -0.007 A 
ATOM     20  C   LIG    1      204.679  92.603 156.634  0.00  0.00    +0.213 C 
ATOM     21  C   LIG    1      204.536  90.957 158.577  0.00  0.00    -0.025 C 
ENDROOT
BRANCH  17  22
ATOM     22  C   LIG    1      203.598  97.854 162.070  0.00  0.00    +0.146 C 
ATOM     23  C   LIG    1      203.745  99.218 161.584  0.00  0.00    +0.068 A 
ATOM     24  C   LIG    1      204.111 100.334 162.259  0.00  0.00    -0.005 A 
ATOM     25  C   LIG    1      204.076 101.396 161.374  0.00  0.00    +0.015 A 
ATOM     26  C   LIG    1      203.684 100.904 160.165  0.00  0.00    +0.081 A 
ATOM     27  C   LIG    1      203.533 101.677 159.023  0.00  0.00    +0.019 A 
ATOM     28  C   LIG    1      203.788 103.015 159.102  0.00  0.00    +0.002 A 
ATOM     29  C   LIG    1      204.185 103.535 160.312  0.00  0.00    +0.000 A 
ATOM     30  C   LIG    1      204.332 102.745 161.451  0.00  0.00    +0.001 A 
ATOM     31  C   LIG    1      204.489 100.389 163.736  0.00  0.00    +0.045 C 
ATOM     32  C   LIG    1      205.984 100.591 163.883  0.00  0.00    +0.077 C 
ATOM     33  N   LIG    1      206.591  99.450 164.612  0.00  0.00    -0.270 NA
ATOM     34  C   LIG    1      207.941  99.255 164.210  0.00  0.00    +0.103 C 
ATOM     35  C   LIG    1      208.267  98.078 163.399  0.00  0.00    +0.141 C 
ATOM     36  C   LIG    1      207.274  97.567 162.437  0.00  0.00    +0.033 C 
ATOM     37  C   LIG    1      205.898  98.439 162.608  0.00  0.00    +0.020 C 
ATOM     38  O   LIG    1      208.690  96.978 164.191  0.00  0.00    -0.224 OA
ATOM     39  C   LIG    1      205.915  98.223 164.239  0.00  0.00    +0.072 C 
ATOM     40  N   LIG    1      203.495  99.609 160.316  0.00  0.00    -0.249 NA
ATOM     41  C   LIG    1      204.905  97.216 162.400  0.00  0.00    +0.022 C 
BRANCH  35  42
ATOM     42  C   LIG    1      209.519  98.427 162.567  0.00  0.00    +0.032 C 
ATOM     43  C   LIG    1      209.774  99.883 163.004  0.00  0.00    +0.003 C 
ENDBRANCH  35  42
BRANCH  22  44
ATOM     44  C   LIG    1      202.574  97.833 163.122  0.00  0.00    +0.325 C 
ATOM     45  O   LIG    1      202.670  96.938 163.973  0.00  0.00    -0.249 OA
BRANCH  44  46
ATOM     46  O   LIG    1      201.509  98.686 163.289  0.00  0.00    -0.444 OA
ATOM     47  C   LIG    1      200.215  98.156 163.487  0.00  0.00    +0.256 C 
ENDBRANCH  44  46
ENDBRANCH  22  44
ENDBRANCH  17  22
BRANCH   1  49
ATOM     48  C   LIG    1      206.956  92.716 156.974  0.00  0.00    +0.001 C 
ATOM     49  C   LIG    1      206.585  91.894 157.822  0.00  0.00    +0.009 C 
ENDBRANCH   1  49
BRANCH  10  50
ATOM     50  C   LIG    1      203.760  94.915 156.895  0.00  0.00    +0.350 C 
ATOM     51  O   LIG    1      203.022  95.521 156.055  0.00  0.00    -0.247 OA
BRANCH  50  52
ATOM     52  O   LIG    1      204.632  95.867 157.381  0.00  0.00    -0.443 OA
ATOM     53  C   LIG    1      205.821  96.334 156.836  0.00  0.00    +0.256 C 
ENDBRANCH  50  52
ENDBRANCH  10  50
BRANCH  16  54
ATOM     54  O   LIG    1      201.233  98.423 160.542  0.00  0.00    -0.472 OA
ATOM     55  C   LIG    1      200.038  98.638 159.808  0.00  0.00    +0.252 C 
ENDBRANCH  16  54
BRANCH  20  56
ATOM     56  O   LIG    1      203.869  91.393 156.259  0.00  0.00    -0.449 OA
BRANCH  56  57
ATOM     57  C   LIG    1      204.097  90.721 155.109  0.00  0.00    +0.318 C 
ATOM     58  O   LIG    1      203.215  90.638 154.224  0.00  0.00    -0.250 OA
ATOM     59  C   LIG    1      205.408  90.050 154.846  0.00  0.00    +0.121 C 
ENDBRANCH  56  57
ENDBRANCH  20  56
TORSDOF 10
