REMARK VINA RESULT:      -7.0      3.411      8.556
REMARK  Name = ZINC000000623420
REMARK                            x       y       z     vdW  Elec       q    Type
REMARK                         _______ _______ _______ _____ _____    ______ ____
ROOT
ATOM      1  C   LIG    1      170.010 147.212 146.309  0.00  0.00    +0.102 A 
ATOM      2  C   LIG    1      170.204 148.324 145.501  0.00  0.00    -0.014 A 
ATOM      3  C   LIG    1      171.075 148.308 144.251  0.00  0.00    +0.046 C 
ATOM      4  C   LIG    1      169.512 149.484 145.953  0.00  0.00    +0.091 A 
ATOM      5  C   LIG    1      168.762 149.199 147.092  0.00  0.00    +0.087 A 
ATOM      6  S   LIG    1      168.910 147.567 147.609  0.00  0.00    -0.066 S 
ENDROOT
BRANCH   5   7
ATOM      7  N   LIG    1      167.930 150.115 147.768  0.00  0.00    -0.275 N 
ATOM      8  H   LIG    1      167.072 150.392 147.268  0.00  0.00    +0.156 HD
ATOM      9  C   LIG    1      168.104 150.731 148.995  0.00  0.00    +0.249 C 
ATOM     10  O   LIG    1      169.127 150.542 149.634  0.00  0.00    -0.270 OA
BRANCH   9  11
ATOM     11  C   LIG    1      167.017 151.611 149.433  0.00  0.00    +0.040 A 
ATOM     12  C   LIG    1      165.948 151.137 150.219  0.00  0.00    -0.038 A 
ATOM     13  C   LIG    1      165.878 149.685 150.666  0.00  0.00    +0.044 C 
ATOM     14  C   LIG    1      164.931 152.010 150.600  0.00  0.00    +0.004 A 
ATOM     15  C   LIG    1      164.960 153.345 150.208  0.00  0.00    +0.000 A 
ATOM     16  C   LIG    1      166.011 153.822 149.436  0.00  0.00    +0.001 A 
ATOM     17  C   LIG    1      167.034 152.963 149.053  0.00  0.00    +0.013 A 
ENDBRANCH   9  11
ENDBRANCH   5   7
BRANCH   1  18
ATOM     18  C   LIG    1      170.586 145.879 146.227  0.00  0.00    +0.346 C 
ATOM     19  O   LIG    1      171.689 145.550 146.650  0.00  0.00    -0.244 OA
BRANCH  18  20
ATOM     20  O   LIG    1      169.842 144.906 145.641  0.00  0.00    -0.461 OA
BRANCH  20  22
ATOM     21  C   LIG    1      170.569 144.342 143.476  0.00  0.00    +0.048 C 
ATOM     22  C   LIG    1      169.426 144.984 144.260  0.00  0.00    +0.229 C 
ENDBRANCH  20  22
ENDBRANCH  18  20
ENDBRANCH   1  18
BRANCH   4  23
ATOM     23  C   LIG    1      169.575 150.805 145.341  0.00  0.00    +0.342 C 
ATOM     24  O   LIG    1      168.663 151.346 144.728  0.00  0.00    -0.245 OA
BRANCH  23  25
ATOM     25  O   LIG    1      170.736 151.525 145.438  0.00  0.00    -0.461 OA
BRANCH  25  26
ATOM     26  C   LIG    1      171.393 151.842 146.696  0.00  0.00    +0.229 C 
ATOM     27  C   LIG    1      170.581 152.991 147.295  0.00  0.00    +0.048 C 
ENDBRANCH  25  26
ENDBRANCH  23  25
ENDBRANCH   4  23
TORSDOF 8
