REMARK VINA RESULT:      -6.4      3.177      8.601
REMARK  Name = ZINC000193546412
REMARK                            x       y       z     vdW  Elec       q    Type
REMARK                         _______ _______ _______ _____ _____    ______ ____
ROOT
ATOM      1  C   LIG    1      159.545 188.087 159.963  0.00  0.00    +0.171 A 
ATOM      2  N   LIG    1      158.524 188.437 160.809  0.00  0.00    -0.204 NA
ATOM      3  C   LIG    1      158.555 189.713 160.976  0.00  0.00    +0.185 A 
ATOM      4  S   LIG    1      159.807 190.508 160.120  0.00  0.00    +0.050 S 
ATOM      5  N   LIG    1      160.302 189.059 159.520  0.00  0.00    -0.187 NA
ENDROOT
BRANCH   1   9
ATOM      6  C   LIG    1      160.232 184.018 158.834  0.00  0.00    +0.120 A 
ATOM      7  C   LIG    1      159.267 184.315 159.798  0.00  0.00    +0.046 A 
ATOM      8  C   LIG    1      159.047 185.640 160.160  0.00  0.00    +0.015 A 
ATOM      9  C   LIG    1      159.780 186.690 159.574  0.00  0.00    +0.020 A 
ATOM     10  C   LIG    1      160.746 186.356 158.605  0.00  0.00    +0.015 A 
ATOM     11  C   LIG    1      160.970 185.033 158.239  0.00  0.00    +0.046 A 
BRANCH   6  13
ATOM     12  C   LIG    1      160.283 181.548 159.241  0.00  0.00    +0.277 C 
ATOM     13  O   LIG    1      160.495 182.728 158.433  0.00  0.00    -0.495 OA
ENDBRANCH   6  13
ENDBRANCH   1   9
BRANCH   3  14
ATOM     14  N   LIG    1      157.602 190.302 161.809  0.00  0.00    -0.259 N 
ATOM     15  H   LIG    1      157.848 190.301 162.803  0.00  0.00    +0.157 HD
ATOM     16  C   LIG    1      156.404 190.871 161.469  0.00  0.00    +0.254 C 
ATOM     17  O   LIG    1      156.084 190.874 160.291  0.00  0.00    -0.270 OA
BRANCH  16  18
ATOM     18  C   LIG    1      155.555 191.441 162.507  0.00  0.00    +0.089 A 
ATOM     19  C   LIG    1      154.776 190.824 163.449  0.00  0.00    +0.182 A 
ATOM     20 BR   LIG    1      154.433 189.014 163.863  0.00  0.00    -0.008 Br
ATOM     21  O   LIG    1      154.157 191.752 164.208  0.00  0.00    -0.456 OA
ATOM     22  C   LIG    1      154.535 192.973 163.759  0.00  0.00    +0.197 A 
ATOM     23  C   LIG    1      155.387 192.823 162.724  0.00  0.00    +0.055 A 
ENDBRANCH  16  18
ENDBRANCH   3  14
TORSDOF 4
