REMARK VINA RESULT:      -6.5      4.308      9.113
REMARK  Name = ZINC000022625070
REMARK                            x       y       z     vdW  Elec       q    Type
REMARK                         _______ _______ _______ _____ _____    ______ ____
ROOT
ATOM      1  C   LIG    1      200.050 116.062 144.742  0.00  0.00    +0.171 A 
ATOM      2  C   LIG    1      199.641 116.734 145.895  0.00  0.00    +0.032 A 
ATOM      3  C   LIG    1      200.054 116.645 147.353  0.00  0.00    +0.046 C 
ATOM      4  C   LIG    1      199.855 118.044 148.001  0.00  0.00    +0.040 C 
ATOM      5  C   LIG    1      198.475 118.632 147.668  0.00  0.00    -0.036 A 
ATOM      6  C   LIG    1      197.914 118.420 146.397  0.00  0.00    +0.027 A 
ATOM      7  C   LIG    1      196.703 119.025 146.054  0.00  0.00    +0.057 A 
ATOM      8  C   LIG    1      196.050 119.823 146.992  0.00  0.00    +0.121 A 
ATOM      9  C   LIG    1      196.591 120.024 148.259  0.00  0.00    +0.046 A 
ATOM     10  C   LIG    1      197.806 119.433 148.592  0.00  0.00    +0.008 A 
ATOM     11  C   LIG    1      198.640 117.539 145.514  0.00  0.00    +0.171 A 
ATOM     12  O   LIG    1      198.451 117.363 144.200  0.00  0.00    -0.354 OA
ATOM     13  N   LIG    1      199.312 116.465 143.732  0.00  0.00    -0.073 NA
ENDROOT
BRANCH   1  16
ATOM     14  N   LIG    1      200.851 113.794 145.097  0.00  0.00    -0.307 N 
ATOM     15  H   LIG    1      199.937 113.660 145.547  0.00  0.00    +0.149 HD
ATOM     16  C   LIG    1      201.114 115.056 144.640  0.00  0.00    +0.266 C 
ATOM     17  O   LIG    1      202.232 115.273 144.177  0.00  0.00    -0.268 OA
BRANCH  14  18
ATOM     18  C   LIG    1      201.861 112.767 145.266  0.00  0.00    +0.070 C 
ATOM     19  C   LIG    1      201.300 111.504 144.612  0.00  0.00    +0.028 C 
BRANCH  18  20
ATOM     20  C   LIG    1      202.135 112.610 146.773  0.00  0.00    +0.023 C 
BRANCH  20  21
ATOM     21  C   LIG    1      203.489 113.160 147.274  0.00  0.00    +0.017 C 
BRANCH  21  22
ATOM     22  C   LIG    1      204.545 112.071 146.966  0.00  0.00    +0.084 C 
BRANCH  22  23
ATOM     23  N   LIG    1      205.726 112.681 146.299  0.00  0.00    -0.303 NA
BRANCH  23  25
ATOM     24  C   LIG    1      207.895 113.479 146.851  0.00  0.00    +0.020 C 
ATOM     25  C   LIG    1      207.017 112.225 146.863  0.00  0.00    +0.081 C 
ENDBRANCH  23  25
BRANCH  23  26
ATOM     26  C   LIG    1      205.670 112.609 144.826  0.00  0.00    +0.081 C 
ATOM     27  C   LIG    1      205.232 111.175 144.508  0.00  0.00    +0.020 C 
ENDBRANCH  23  26
ENDBRANCH  22  23
ENDBRANCH  21  22
ENDBRANCH  20  21
ENDBRANCH  18  20
ENDBRANCH  14  18
ENDBRANCH   1  16
BRANCH   8  28
ATOM     28  O   LIG    1      194.851 120.442 146.715  0.00  0.00    -0.495 OA
ATOM     29  C   LIG    1      193.938 120.963 147.707  0.00  0.00    +0.277 C 
ENDBRANCH   8  28
TORSDOF 9
