REMARK VINA RESULT:      -6.8      3.786      8.391
REMARK  Name = ZINC000000623420
REMARK                            x       y       z     vdW  Elec       q    Type
REMARK                         _______ _______ _______ _____ _____    ______ ____
ROOT
ATOM      1  C   LIG    1      170.644 147.544 146.447  0.00  0.00    +0.102 A 
ATOM      2  C   LIG    1      170.155 148.706 145.865  0.00  0.00    -0.014 A 
ATOM      3  C   LIG    1      170.675 149.263 144.545  0.00  0.00    +0.046 C 
ATOM      4  C   LIG    1      169.122 149.330 146.621  0.00  0.00    +0.091 A 
ATOM      5  C   LIG    1      168.821 148.583 147.758  0.00  0.00    +0.087 A 
ATOM      6  S   LIG    1      169.782 147.166 147.910  0.00  0.00    -0.066 S 
ENDROOT
BRANCH   5   7
ATOM      7  N   LIG    1      167.820 148.900 148.698  0.00  0.00    -0.275 N 
ATOM      8  H   LIG    1      166.910 148.435 148.556  0.00  0.00    +0.156 HD
ATOM      9  C   LIG    1      167.857 149.771 149.772  0.00  0.00    +0.249 C 
ATOM     10  O   LIG    1      168.858 150.439 149.982  0.00  0.00    -0.270 OA
BRANCH   9  11
ATOM     11  C   LIG    1      166.642 149.841 150.587  0.00  0.00    +0.040 A 
ATOM     12  C   LIG    1      166.358 148.884 151.582  0.00  0.00    -0.038 A 
ATOM     13  C   LIG    1      167.312 147.737 151.871  0.00  0.00    +0.044 C 
ATOM     14  C   LIG    1      165.181 148.987 152.323  0.00  0.00    +0.004 A 
ATOM     15  C   LIG    1      164.283 150.023 152.086  0.00  0.00    +0.000 A 
ATOM     16  C   LIG    1      164.556 150.972 151.108  0.00  0.00    +0.001 A 
ATOM     17  C   LIG    1      165.727 150.884 150.366  0.00  0.00    +0.013 A 
ENDBRANCH   9  11
ENDBRANCH   5   7
BRANCH   1  18
ATOM     18  C   LIG    1      171.725 146.666 146.028  0.00  0.00    +0.346 C 
ATOM     19  O   LIG    1      172.906 146.793 146.335  0.00  0.00    -0.244 OA
BRANCH  18  20
ATOM     20  O   LIG    1      171.410 145.609 145.238  0.00  0.00    -0.461 OA
BRANCH  20  22
ATOM     21  C   LIG    1      170.978 144.323 143.316  0.00  0.00    +0.048 C 
ATOM     22  C   LIG    1      171.530 145.662 143.800  0.00  0.00    +0.229 C 
ENDBRANCH  20  22
ENDBRANCH  18  20
ENDBRANCH   1  18
BRANCH   4  23
ATOM     23  C   LIG    1      168.466 150.587 146.288  0.00  0.00    +0.342 C 
ATOM     24  O   LIG    1      169.038 151.622 145.966  0.00  0.00    -0.245 OA
BRANCH  23  25
ATOM     25  O   LIG    1      167.098 150.654 146.333  0.00  0.00    -0.461 OA
BRANCH  25  26
ATOM     26  C   LIG    1      166.306 151.601 145.566  0.00  0.00    +0.229 C 
ATOM     27  C   LIG    1      165.416 152.304 146.591  0.00  0.00    +0.048 C 
ENDBRANCH  25  26
ENDBRANCH  23  25
ENDBRANCH   4  23
TORSDOF 8
