REMARK VINA RESULT:      -6.6     18.384     22.595
REMARK  Name = 
REMARK                            x       y       z     vdW  Elec       q    Type
REMARK                         _______ _______ _______ _____ _____    ______ ____
ROOT
ATOM      1  C   LIG    1      189.247  89.968 153.434  0.00  0.00    +0.032 C 
ATOM      2  C   LIG    1      187.923  89.284 153.308  0.00  0.00    -0.006 A 
ATOM      3  C   LIG    1      187.461  88.427 154.316  0.00  0.00    +0.071 A 
ATOM      4  C   LIG    1      186.239  87.786 154.214  0.00  0.00    +0.033 A 
ATOM      5  C   LIG    1      185.469  88.000 153.099  0.00  0.00    +0.075 A 
ATOM      6  C   LIG    1      185.922  88.854 152.087  0.00  0.00    +0.016 A 
ATOM      7  C   LIG    1      187.142  89.484 152.205  0.00  0.00    -0.002 A 
ENDROOT
BRANCH   5   8
ATOM      8  N   LIG    1      184.220  87.370 152.953  0.00  0.00    -0.175 NA
ATOM      9  C   LIG    1      184.019  86.034 152.556  0.00  0.00    +0.269 C 
ATOM     10  O   LIG    1      185.001  85.313 152.303  0.00  0.00    -0.268 OA
BRANCH   9  11
ATOM     11  C   LIG    1      182.654  85.504 152.445  0.00  0.00    +0.055 A 
ATOM     12  C   LIG    1      181.558  86.338 152.448  0.00  0.00    +0.004 A 
ATOM     13  C   LIG    1      180.257  85.837 152.341  0.00  0.00    -0.003 A 
ATOM     14  C   LIG    1      180.034  84.487 152.231  0.00  0.00    -0.006 A 
ATOM     15  C   LIG    1      181.122  83.648 152.228  0.00  0.00    -0.003 A 
ATOM     16  C   LIG    1      182.425  84.149 152.334  0.00  0.00    +0.004 A 
BRANCH  14  17
ATOM     17  C   LIG    1      178.661  83.963 152.119  0.00  0.00    +0.099 C 
BRANCH  17  18
ATOM     18  N   LIG    1      177.983  83.812 153.366  0.00  0.00    -0.267 NA
ATOM     19  C   LIG    1      177.048  84.881 153.657  0.00  0.00    +0.090 C 
ATOM     20  C   LIG    1      175.917  84.908 152.651  0.00  0.00    +0.090 C 
ATOM     21  N   LIG    1      175.558  83.552 152.246  0.00  0.00    -0.269 NA
ATOM     22  C   LIG    1      174.155  83.435 151.989  0.00  0.00    +0.090 C 
ATOM     23  C   LIG    1      175.899  82.602 153.309  0.00  0.00    +0.090 C 
ATOM     24  C   LIG    1      177.387  82.506 153.404  0.00  0.00    +0.090 C 
ENDBRANCH  17  18
ENDBRANCH  14  17
ENDBRANCH   9  11
ENDBRANCH   5   8
BRANCH   3  25
ATOM     25  N   LIG    1      188.303  88.264 155.412  0.00  0.00    -0.178 NA
BRANCH  25  26
ATOM     26  C   LIG    1      188.721  87.104 156.066  0.00  0.00    +0.241 A 
ATOM     27  N   LIG    1      187.796  86.442 156.810  0.00  0.00    -0.212 NA
ATOM     28  C   LIG    1      188.020  85.328 157.494  0.00  0.00    +0.087 A 
ATOM     29  C   LIG    1      189.309  84.785 157.452  0.00  0.00    +0.040 A 
ATOM     30  C   LIG    1      190.253  85.451 156.700  0.00  0.00    +0.103 A 
ATOM     31  N   LIG    1      189.934  86.576 156.038  0.00  0.00    -0.211 NA
BRANCH  28  32
ATOM     32  C   LIG    1      186.999  84.648 158.280  0.00  0.00    +0.037 A 
ATOM     33  C   LIG    1      185.856  85.324 158.646  0.00  0.00    +0.100 A 
ATOM     34  N   LIG    1      184.889  84.699 159.384  0.00  0.00    -0.242 NA
ATOM     35  C   LIG    1      185.014  83.437 159.768  0.00  0.00    +0.099 A 
ATOM     36  C   LIG    1      186.136  82.706 159.431  0.00  0.00    +0.021 A 
ATOM     37  C   LIG    1      187.128  83.338 158.678  0.00  0.00    +0.005 A 
ENDBRANCH  28  32
ENDBRANCH  25  26
ENDBRANCH   3  25
TORSDOF 7
