MODEL 1
REMARK VINA RESULT:      -6.6      0.000      0.000
REMARK  Name = ZINC000193546412
REMARK                            x       y       z     vdW  Elec       q    Type
REMARK                         _______ _______ _______ _____ _____    ______ ____
ROOT
ATOM      1  C   LIG    1      156.257 188.876 160.605  0.00  0.00    +0.171 A 
ATOM      2  N   LIG    1      156.742 187.598 160.494  0.00  0.00    -0.204 NA
ATOM      3  C   LIG    1      157.560 187.559 159.501  0.00  0.00    +0.185 A 
ATOM      4  S   LIG    1      157.759 189.055 158.690  0.00  0.00    +0.050 S 
ATOM      5  N   LIG    1      156.695 189.750 159.734  0.00  0.00    -0.187 NA
ENDROOT
BRANCH   1   9
ATOM      6  C   LIG    1      153.445 189.952 163.644  0.00  0.00    +0.120 A 
ATOM      7  C   LIG    1      154.810 189.965 163.929  0.00  0.00    +0.046 A 
ATOM      8  C   LIG    1      155.720 189.616 162.937  0.00  0.00    +0.015 A 
ATOM      9  C   LIG    1      155.291 189.246 161.648  0.00  0.00    +0.020 A 
ATOM     10  C   LIG    1      153.906 189.243 161.393  0.00  0.00    +0.015 A 
ATOM     11  C   LIG    1      152.992 189.591 162.381  0.00  0.00    +0.046 A 
BRANCH   6  13
ATOM     12  C   LIG    1      152.596 191.398 165.504  0.00  0.00    +0.277 C 
ATOM     13  O   LIG    1      152.496 190.287 164.582  0.00  0.00    -0.495 OA
ENDBRANCH   6  13
ENDBRANCH   1   9
BRANCH   3  14
ATOM     14  N   LIG    1      158.181 186.348 159.193  0.00  0.00    -0.259 N 
ATOM     15  H   LIG    1      157.853 185.910 158.327  0.00  0.00    +0.157 HD
ATOM     16  C   LIG    1      159.158 185.685 159.888  0.00  0.00    +0.254 C 
ATOM     17  O   LIG    1      159.557 186.183 160.929  0.00  0.00    -0.270 OA
BRANCH  16  18
ATOM     18  C   LIG    1      159.677 184.424 159.379  0.00  0.00    +0.089 A 
ATOM     19  C   LIG    1      160.651 184.181 158.447  0.00  0.00    +0.182 A 
ATOM     20 BR   LIG    1      161.761 185.304 157.411  0.00  0.00    -0.008 Br
ATOM     21  O   LIG    1      160.805 182.851 158.284  0.00  0.00    -0.456 OA
ATOM     22  C   LIG    1      159.931 182.228 159.111  0.00  0.00    +0.197 A 
ATOM     23  C   LIG    1      159.228 183.155 159.795  0.00  0.00    +0.055 A 
ENDBRANCH  16  18
ENDBRANCH   3  14
TORSDOF 4
ENDMDL
MODEL 2
REMARK VINA RESULT:      -6.6     42.937     46.969
REMARK  Name = ZINC000193546412
REMARK                            x       y       z     vdW  Elec       q    Type
REMARK                         _______ _______ _______ _____ _____    ______ ____
ROOT
ATOM      1  C   LIG    1      170.469 143.483 146.798  0.00  0.00    +0.171 A 
ATOM      2  N   LIG    1      170.854 144.792 146.933  0.00  0.00    -0.204 NA
ATOM      3  C   LIG    1      170.545 145.419 145.852  0.00  0.00    +0.185 A 
ATOM      4  S   LIG    1      169.789 144.447 144.661  0.00  0.00    +0.050 S 
ATOM      5  N   LIG    1      169.899 143.150 145.666  0.00  0.00    -0.187 NA
ENDROOT
BRANCH   1   9
ATOM      6  C   LIG    1      171.104 140.624 149.916  0.00  0.00    +0.120 A 
ATOM      7  C   LIG    1      169.804 140.938 149.520  0.00  0.00    +0.046 A 
ATOM      8  C   LIG    1      169.604 141.867 148.505  0.00  0.00    +0.015 A 
ATOM      9  C   LIG    1      170.688 142.500 147.868  0.00  0.00    +0.020 A 
ATOM     10  C   LIG    1      171.987 142.161 148.291  0.00  0.00    +0.015 A 
ATOM     11  C   LIG    1      172.194 141.232 149.305  0.00  0.00    +0.046 A 
BRANCH   6  13
ATOM     12  C   LIG    1      172.351 139.889 151.960  0.00  0.00    +0.277 C 
ATOM     13  O   LIG    1      171.368 139.713 150.913  0.00  0.00    -0.495 OA
ENDBRANCH   6  13
ENDBRANCH   1   9
BRANCH   3  14
ATOM     14  N   LIG    1      170.847 146.779 145.758  0.00  0.00    -0.259 N 
ATOM     15  H   LIG    1      171.820 146.983 145.516  0.00  0.00    +0.157 HD
ATOM     16  C   LIG    1      170.018 147.854 145.944  0.00  0.00    +0.254 C 
ATOM     17  O   LIG    1      168.855 147.636 146.244  0.00  0.00    -0.270 OA
BRANCH  16  18
ATOM     18  C   LIG    1      170.542 149.204 145.788  0.00  0.00    +0.089 A 
ATOM     19  C   LIG    1      171.318 149.954 146.631  0.00  0.00    +0.182 A 
ATOM     20 BR   LIG    1      172.071 149.628 148.332  0.00  0.00    -0.008 Br
ATOM     21  O   LIG    1      171.564 151.157 146.074  0.00  0.00    -0.456 OA
ATOM     22  C   LIG    1      170.948 151.190 144.868  0.00  0.00    +0.197 A 
ATOM     23  C   LIG    1      170.316 150.017 144.659  0.00  0.00    +0.055 A 
ENDBRANCH  16  18
ENDBRANCH   3  14
TORSDOF 4
ENDMDL
MODEL 3
REMARK VINA RESULT:      -6.5     82.194     86.162
REMARK  Name = ZINC000193546412
REMARK                            x       y       z     vdW  Elec       q    Type
REMARK                         _______ _______ _______ _____ _____    ______ ____
ROOT
ATOM      1  C   LIG    1      164.872 101.654 174.839  0.00  0.00    +0.171 A 
ATOM      2  N   LIG    1      164.521 102.502 173.820  0.00  0.00    -0.204 NA
ATOM      3  C   LIG    1      165.486 103.333 173.633  0.00  0.00    +0.185 A 
ATOM      4  S   LIG    1      166.826 103.107 174.676  0.00  0.00    +0.050 S 
ATOM      5  N   LIG    1      166.046 101.845 175.386  0.00  0.00    -0.187 NA
ENDROOT
BRANCH   1   9
ATOM      6  C   LIG    1      162.253  98.543 176.169  0.00  0.00    +0.120 A 
ATOM      7  C   LIG    1      162.589  98.634 174.818  0.00  0.00    +0.046 A 
ATOM      8  C   LIG    1      163.441  99.647 174.391  0.00  0.00    +0.015 A 
ATOM      9  C   LIG    1      163.973 100.585 175.296  0.00  0.00    +0.020 A 
ATOM     10  C   LIG    1      163.616 100.465 176.653  0.00  0.00    +0.015 A 
ATOM     11  C   LIG    1      162.764  99.454 177.085  0.00  0.00    +0.046 A 
BRANCH   6  13
ATOM     12  C   LIG    1      160.480  97.736 177.742  0.00  0.00    +0.277 C 
ATOM     13  O   LIG    1      161.416  97.564 176.653  0.00  0.00    -0.495 OA
ENDBRANCH   6  13
ENDBRANCH   1   9
BRANCH   3  14
ATOM     14  N   LIG    1      165.351 104.303 172.638  0.00  0.00    -0.259 N 
ATOM     15  H   LIG    1      165.943 104.153 171.816  0.00  0.00    +0.157 HD
ATOM     16  C   LIG    1      164.540 105.406 172.623  0.00  0.00    +0.254 C 
ATOM     17  O   LIG    1      163.832 105.611 173.597  0.00  0.00    -0.270 OA
BRANCH  16  18
ATOM     18  C   LIG    1      164.549 106.294 171.468  0.00  0.00    +0.089 A 
ATOM     19  C   LIG    1      164.859 106.037 170.159  0.00  0.00    +0.182 A 
ATOM     20 BR   LIG    1      165.394 104.478 169.236  0.00  0.00    -0.008 Br
ATOM     21  O   LIG    1      164.732 107.165 169.431  0.00  0.00    -0.456 OA
ATOM     22  C   LIG    1      164.339 108.156 170.267  0.00  0.00    +0.197 A 
ATOM     23  C   LIG    1      164.217 107.662 171.516  0.00  0.00    +0.055 A 
ENDBRANCH  16  18
ENDBRANCH   3  14
TORSDOF 4
ENDMDL
MODEL 4
REMARK VINA RESULT:      -6.4     81.325     86.347
REMARK  Name = ZINC000193546412
REMARK                            x       y       z     vdW  Elec       q    Type
REMARK                         _______ _______ _______ _____ _____    ______ ____
ROOT
ATOM      1  C   LIG    1      202.824 114.244 145.710  0.00  0.00    +0.171 A 
ATOM      2  N   LIG    1      201.898 115.022 146.356  0.00  0.00    -0.204 NA
ATOM      3  C   LIG    1      200.960 115.311 145.524  0.00  0.00    +0.185 A 
ATOM      4  S   LIG    1      201.176 114.653 143.957  0.00  0.00    +0.050 S 
ATOM      5  N   LIG    1      202.586 113.966 144.452  0.00  0.00    -0.187 NA
ENDROOT
BRANCH   1   9
ATOM      6  C   LIG    1      206.324 112.800 147.702  0.00  0.00    +0.120 A 
ATOM      7  C   LIG    1      205.137 112.072 147.776  0.00  0.00    +0.046 A 
ATOM      8  C   LIG    1      204.002 112.545 147.125  0.00  0.00    +0.015 A 
ATOM      9  C   LIG    1      204.027 113.747 146.393  0.00  0.00    +0.020 A 
ATOM     10  C   LIG    1      205.241 114.458 146.338  0.00  0.00    +0.015 A 
ATOM     11  C   LIG    1      206.379 113.990 146.987  0.00  0.00    +0.046 A 
BRANCH   6  13
ATOM     12  C   LIG    1      208.796 112.930 148.077  0.00  0.00    +0.277 C 
ATOM     13  O   LIG    1      207.480 112.385 148.323  0.00  0.00    -0.495 OA
ENDBRANCH   6  13
ENDBRANCH   1   9
BRANCH   3  14
ATOM     14  N   LIG    1      199.898 116.105 145.962  0.00  0.00    -0.259 N 
ATOM     15  H   LIG    1      199.158 115.593 146.449  0.00  0.00    +0.157 HD
ATOM     16  C   LIG    1      199.729 117.457 145.826  0.00  0.00    +0.254 C 
ATOM     17  O   LIG    1      200.594 118.087 145.239  0.00  0.00    -0.270 OA
BRANCH  16  18
ATOM     18  C   LIG    1      198.537 118.093 146.370  0.00  0.00    +0.089 A 
ATOM     19  C   LIG    1      198.262 118.511 147.645  0.00  0.00    +0.182 A 
ATOM     20 BR   LIG    1      199.244 118.482 149.258  0.00  0.00    -0.008 Br
ATOM     21  O   LIG    1      197.025 119.047 147.693  0.00  0.00    -0.456 OA
ATOM     22  C   LIG    1      196.496 118.979 146.447  0.00  0.00    +0.197 A 
ATOM     23  C   LIG    1      197.389 118.405 145.615  0.00  0.00    +0.055 A 
ENDBRANCH  16  18
ENDBRANCH   3  14
TORSDOF 4
ENDMDL
MODEL 5
REMARK VINA RESULT:      -6.4      2.991      8.525
REMARK  Name = ZINC000193546412
REMARK                            x       y       z     vdW  Elec       q    Type
REMARK                         _______ _______ _______ _____ _____    ______ ____
ROOT
ATOM      1  C   LIG    1      158.318 187.419 160.002  0.00  0.00    +0.171 A 
ATOM      2  N   LIG    1      156.978 187.538 160.266  0.00  0.00    -0.204 NA
ATOM      3  C   LIG    1      156.737 188.758 160.598  0.00  0.00    +0.185 A 
ATOM      4  S   LIG    1      158.113 189.777 160.596  0.00  0.00    +0.050 S 
ATOM      5  N   LIG    1      159.043 188.502 160.131  0.00  0.00    -0.187 NA
ENDROOT
BRANCH   1   9
ATOM      6  C   LIG    1      160.054 183.690 158.824  0.00  0.00    +0.120 A 
ATOM      7  C   LIG    1      158.831 183.702 159.496  0.00  0.00    +0.046 A 
ATOM      8  C   LIG    1      158.271 184.917 159.876  0.00  0.00    +0.015 A 
ATOM      9  C   LIG    1      158.914 186.138 159.596  0.00  0.00    +0.020 A 
ATOM     10  C   LIG    1      160.146 186.091 158.916  0.00  0.00    +0.015 A 
ATOM     11  C   LIG    1      160.711 184.879 158.534  0.00  0.00    +0.046 A 
BRANCH   6  13
ATOM     12  C   LIG    1      160.435 181.223 159.019  0.00  0.00    +0.277 C 
ATOM     13  O   LIG    1      160.658 182.521 158.422  0.00  0.00    -0.495 OA
ENDBRANCH   6  13
ENDBRANCH   1   9
BRANCH   3  14
ATOM     14  N   LIG    1      155.426 189.118 160.918  0.00  0.00    -0.259 N 
ATOM     15  H   LIG    1      154.772 189.082 160.131  0.00  0.00    +0.157 HD
ATOM     16  C   LIG    1      154.916 189.503 162.129  0.00  0.00    +0.254 C 
ATOM     17  O   LIG    1      155.680 189.563 163.080  0.00  0.00    -0.270 OA
BRANCH  16  18
ATOM     18  C   LIG    1      153.502 189.831 162.245  0.00  0.00    +0.089 A 
ATOM     19  C   LIG    1      152.787 190.866 161.702  0.00  0.00    +0.182 A 
ATOM     20 BR   LIG    1      153.251 192.310 160.576  0.00  0.00    -0.008 Br
ATOM     21  O   LIG    1      151.496 190.776 162.080  0.00  0.00    -0.456 OA
ATOM     22  C   LIG    1      151.371 189.683 162.869  0.00  0.00    +0.197 A 
ATOM     23  C   LIG    1      152.572 189.081 162.992  0.00  0.00    +0.055 A 
ENDBRANCH  16  18
ENDBRANCH   3  14
TORSDOF 4
ENDMDL
MODEL 6
REMARK VINA RESULT:      -6.4     42.562     45.063
REMARK  Name = ZINC000193546412
REMARK                            x       y       z     vdW  Elec       q    Type
REMARK                         _______ _______ _______ _____ _____    ______ ____
ROOT
ATOM      1  C   LIG    1      180.602 151.421 149.481  0.00  0.00    +0.171 A 
ATOM      2  N   LIG    1      180.310 151.225 150.807  0.00  0.00    -0.204 NA
ATOM      3  C   LIG    1      179.030 151.196 150.940  0.00  0.00    +0.185 A 
ATOM      4  S   LIG    1      178.161 151.403 149.479  0.00  0.00    +0.050 S 
ATOM      5  N   LIG    1      179.585 151.534 148.664  0.00  0.00    -0.187 NA
ENDROOT
BRANCH   1   9
ATOM      6  C   LIG    1      184.638 151.668 148.082  0.00  0.00    +0.120 A 
ATOM      7  C   LIG    1      184.373 151.755 149.449  0.00  0.00    +0.046 A 
ATOM      8  C   LIG    1      183.059 151.673 149.898  0.00  0.00    +0.015 A 
ATOM      9  C   LIG    1      181.988 151.505 149.000  0.00  0.00    +0.020 A 
ATOM     10  C   LIG    1      182.289 151.421 147.627  0.00  0.00    +0.015 A 
ATOM     11  C   LIG    1      183.600 151.502 147.172  0.00  0.00    +0.046 A 
BRANCH   6  13
ATOM     12  C   LIG    1      186.294 151.386 146.226  0.00  0.00    +0.277 C 
ATOM     13  O   LIG    1      185.915 151.742 147.575  0.00  0.00    -0.495 OA
ENDBRANCH   6  13
ENDBRANCH   1   9
BRANCH   3  14
ATOM     14  N   LIG    1      178.495 151.008 152.216  0.00  0.00    -0.259 N 
ATOM     15  H   LIG    1      177.863 151.752 152.525  0.00  0.00    +0.157 HD
ATOM     16  C   LIG    1      178.703 149.972 153.087  0.00  0.00    +0.254 C 
ATOM     17  O   LIG    1      179.461 149.079 152.744  0.00  0.00    -0.270 OA
BRANCH  16  18
ATOM     18  C   LIG    1      178.032 149.970 154.379  0.00  0.00    +0.089 A 
ATOM     19  C   LIG    1      177.816 150.991 155.265  0.00  0.00    +0.182 A 
ATOM     20 BR   LIG    1      178.251 152.829 155.254  0.00  0.00    -0.008 Br
ATOM     21  O   LIG    1      177.148 150.528 156.342  0.00  0.00    -0.456 OA
ATOM     22  C   LIG    1      176.929 149.205 156.155  0.00  0.00    +0.197 A 
ATOM     23  C   LIG    1      177.452 148.829 154.970  0.00  0.00    +0.055 A 
ENDBRANCH  16  18
ENDBRANCH   3  14
TORSDOF 4
ENDMDL
MODEL 7
REMARK VINA RESULT:      -6.4    105.915    107.426
REMARK  Name = ZINC000193546412
REMARK                            x       y       z     vdW  Elec       q    Type
REMARK                         _______ _______ _______ _____ _____    ______ ____
ROOT
ATOM      1  C   LIG    1      193.292  87.862 158.287  0.00  0.00    +0.171 A 
ATOM      2  N   LIG    1      192.813  86.586 158.132  0.00  0.00    -0.204 NA
ATOM      3  C   LIG    1      191.554  86.654 157.874  0.00  0.00    +0.185 A 
ATOM      4  S   LIG    1      190.930  88.248 157.812  0.00  0.00    +0.050 S 
ATOM      5  N   LIG    1      192.428  88.836 158.150  0.00  0.00    -0.187 NA
ENDROOT
BRANCH   1   9
ATOM      6  C   LIG    1      197.408  88.620 159.179  0.00  0.00    +0.120 A 
ATOM      7  C   LIG    1      196.830  89.187 158.042  0.00  0.00    +0.046 A 
ATOM      8  C   LIG    1      195.492  88.938 157.757  0.00  0.00    +0.015 A 
ATOM      9  C   LIG    1      194.705  88.123 158.594  0.00  0.00    +0.020 A 
ATOM     10  C   LIG    1      195.318  87.567 159.733  0.00  0.00    +0.015 A 
ATOM     11  C   LIG    1      196.656  87.813 160.023  0.00  0.00    +0.046 A 
BRANCH   6  13
ATOM     12  C   LIG    1      199.646  89.667 158.779  0.00  0.00    +0.277 C 
ATOM     13  O   LIG    1      198.725  88.829 159.514  0.00  0.00    -0.495 OA
ENDBRANCH   6  13
ENDBRANCH   1   9
BRANCH   3  14
ATOM     14  N   LIG    1      190.846  85.467 157.678  0.00  0.00    -0.259 N 
ATOM     15  H   LIG    1      190.764  85.178 156.699  0.00  0.00    +0.157 HD
ATOM     16  C   LIG    1      190.261  84.656 158.613  0.00  0.00    +0.254 C 
ATOM     17  O   LIG    1      190.336  84.987 159.786  0.00  0.00    -0.270 OA
BRANCH  16  18
ATOM     18  C   LIG    1      189.570  83.446 158.189  0.00  0.00    +0.089 A 
ATOM     19  C   LIG    1      188.231  83.155 158.165  0.00  0.00    +0.182 A 
ATOM     20 BR   LIG    1      186.685  84.131 158.638  0.00  0.00    -0.008 Br
ATOM     21  O   LIG    1      188.045  81.906 157.693  0.00  0.00    -0.456 OA
ATOM     22  C   LIG    1      189.263  81.384 157.410  0.00  0.00    +0.197 A 
ATOM     23  C   LIG    1      190.216  82.294 157.698  0.00  0.00    +0.055 A 
ENDBRANCH  16  18
ENDBRANCH   3  14
TORSDOF 4
ENDMDL
MODEL 8
REMARK VINA RESULT:      -6.4      3.177      8.601
REMARK  Name = ZINC000193546412
REMARK                            x       y       z     vdW  Elec       q    Type
REMARK                         _______ _______ _______ _____ _____    ______ ____
ROOT
ATOM      1  C   LIG    1      159.545 188.087 159.963  0.00  0.00    +0.171 A 
ATOM      2  N   LIG    1      158.524 188.437 160.809  0.00  0.00    -0.204 NA
ATOM      3  C   LIG    1      158.555 189.713 160.976  0.00  0.00    +0.185 A 
ATOM      4  S   LIG    1      159.807 190.508 160.120  0.00  0.00    +0.050 S 
ATOM      5  N   LIG    1      160.302 189.059 159.520  0.00  0.00    -0.187 NA
ENDROOT
BRANCH   1   9
ATOM      6  C   LIG    1      160.232 184.018 158.834  0.00  0.00    +0.120 A 
ATOM      7  C   LIG    1      159.267 184.315 159.798  0.00  0.00    +0.046 A 
ATOM      8  C   LIG    1      159.047 185.640 160.160  0.00  0.00    +0.015 A 
ATOM      9  C   LIG    1      159.780 186.690 159.574  0.00  0.00    +0.020 A 
ATOM     10  C   LIG    1      160.746 186.356 158.605  0.00  0.00    +0.015 A 
ATOM     11  C   LIG    1      160.970 185.033 158.239  0.00  0.00    +0.046 A 
BRANCH   6  13
ATOM     12  C   LIG    1      160.283 181.548 159.241  0.00  0.00    +0.277 C 
ATOM     13  O   LIG    1      160.495 182.728 158.433  0.00  0.00    -0.495 OA
ENDBRANCH   6  13
ENDBRANCH   1   9
BRANCH   3  14
ATOM     14  N   LIG    1      157.602 190.302 161.809  0.00  0.00    -0.259 N 
ATOM     15  H   LIG    1      157.848 190.301 162.803  0.00  0.00    +0.157 HD
ATOM     16  C   LIG    1      156.404 190.871 161.469  0.00  0.00    +0.254 C 
ATOM     17  O   LIG    1      156.084 190.874 160.291  0.00  0.00    -0.270 OA
BRANCH  16  18
ATOM     18  C   LIG    1      155.555 191.441 162.507  0.00  0.00    +0.089 A 
ATOM     19  C   LIG    1      154.776 190.824 163.449  0.00  0.00    +0.182 A 
ATOM     20 BR   LIG    1      154.433 189.014 163.863  0.00  0.00    -0.008 Br
ATOM     21  O   LIG    1      154.157 191.752 164.208  0.00  0.00    -0.456 OA
ATOM     22  C   LIG    1      154.535 192.973 163.759  0.00  0.00    +0.197 A 
ATOM     23  C   LIG    1      155.387 192.823 162.724  0.00  0.00    +0.055 A 
ENDBRANCH  16  18
ENDBRANCH   3  14
TORSDOF 4
ENDMDL
MODEL 9
REMARK VINA RESULT:      -6.2     98.980    102.558
REMARK  Name = ZINC000193546412
REMARK                            x       y       z     vdW  Elec       q    Type
REMARK                         _______ _______ _______ _____ _____    ______ ____
ROOT
ATOM      1  C   LIG    1      197.944  95.047 158.314  0.00  0.00    +0.171 A 
ATOM      2  N   LIG    1      197.639  93.834 158.875  0.00  0.00    -0.204 NA
ATOM      3  C   LIG    1      197.365  93.006 157.929  0.00  0.00    +0.185 A 
ATOM      4  S   LIG    1      197.472  93.672 156.354  0.00  0.00    +0.050 S 
ATOM      5  N   LIG    1      197.900  95.119 157.007  0.00  0.00    -0.187 NA
ENDROOT
BRANCH   1   9
ATOM      6  C   LIG    1      198.979  98.435 160.713  0.00  0.00    +0.120 A 
ATOM      7  C   LIG    1      198.869  97.177 161.304  0.00  0.00    +0.046 A 
ATOM      8  C   LIG    1      198.534  96.079 160.519  0.00  0.00    +0.015 A 
ATOM      9  C   LIG    1      198.301  96.211 159.137  0.00  0.00    +0.020 A 
ATOM     10  C   LIG    1      198.419  97.495 158.572  0.00  0.00    +0.015 A 
ATOM     11  C   LIG    1      198.755  98.596 159.351  0.00  0.00    +0.046 A 
BRANCH   6  13
ATOM     12  C   LIG    1      200.222  99.588 162.555  0.00  0.00    +0.277 C 
ATOM     13  O   LIG    1      199.308  99.559 161.435  0.00  0.00    -0.495 OA
ENDBRANCH   6  13
ENDBRANCH   1   9
BRANCH   3  14
ATOM     14  N   LIG    1      197.019  91.696 158.265  0.00  0.00    -0.259 N 
ATOM     15  H   LIG    1      196.051  91.579 158.577  0.00  0.00    +0.157 HD
ATOM     16  C   LIG    1      197.797  90.570 158.228  0.00  0.00    +0.254 C 
ATOM     17  O   LIG    1      198.959  90.686 157.869  0.00  0.00    -0.270 OA
BRANCH  16  18
ATOM     18  C   LIG    1      197.229  89.287 158.618  0.00  0.00    +0.089 A 
ATOM     19  C   LIG    1      197.093  88.126 157.903  0.00  0.00    +0.182 A 
ATOM     20 BR   LIG    1      197.560  87.627 156.143  0.00  0.00    -0.008 Br
ATOM     21  O   LIG    1      196.504  87.185 158.669  0.00  0.00    -0.456 OA
ATOM     22  C   LIG    1      196.257  87.734 159.883  0.00  0.00    +0.197 A 
ATOM     23  C   LIG    1      196.686  89.013 159.889  0.00  0.00    +0.055 A 
ENDBRANCH  16  18
ENDBRANCH   3  14
TORSDOF 4
ENDMDL
