REMARK VINA RESULT:      -6.0     25.084     26.865
REMARK  Name = ZINC000049399659
REMARK                            x       y       z     vdW  Elec       q    Type
REMARK                         _______ _______ _______ _____ _____    ______ ____
ROOT
ATOM      1  C   LIG    1      179.867 178.957 168.620  0.00  0.00    +0.173 C 
ENDROOT
BRANCH   1   4
ATOM      2  N   LIG    1      180.590 180.419 166.779  0.00  0.00    -0.282 N 
ATOM      3  H   LIG    1      181.094 180.901 167.539  0.00  0.00    +0.155 HD
ATOM      4  C   LIG    1      179.770 179.391 167.174  0.00  0.00    +0.228 C 
ATOM      5  O   LIG    1      179.001 178.866 166.396  0.00  0.00    -0.275 OA
BRANCH   2   7
ATOM      6  C   LIG    1      180.732 182.413 165.446  0.00  0.00    +0.141 A 
ATOM      7  C   LIG    1      180.773 181.010 165.496  0.00  0.00    +0.077 A 
ATOM      8  C   LIG    1      181.005 180.273 164.333  0.00  0.00    +0.047 A 
ATOM      9  C   LIG    1      181.177 180.947 163.123  0.00  0.00    +0.043 A 
ATOM     10 CL   LIG    1      181.462 180.049 161.671  0.00  0.00    -0.083 Cl
ATOM     11  C   LIG    1      181.126 182.343 163.070  0.00  0.00    +0.024 A 
ATOM     12  C   LIG    1      180.905 183.079 164.232  0.00  0.00    +0.049 A 
BRANCH   6  14
ATOM     13  C   LIG    1      179.972 184.448 166.728  0.00  0.00    +0.277 C 
ATOM     14  O   LIG    1      180.520 183.113 166.636  0.00  0.00    -0.493 OA
ENDBRANCH   6  14
ENDBRANCH   2   7
ENDBRANCH   1   4
BRANCH   1  15
ATOM     15  S   LIG    1      178.569 177.685 168.867  0.00  0.00    -0.077 S 
BRANCH  15  16
ATOM     16  C   LIG    1      177.262 178.607 169.541  0.00  0.00    +0.190 A 
ATOM     17  N   LIG    1      177.440 179.921 169.687  0.00  0.00    -0.207 NA
ATOM     18  C   LIG    1      176.447 180.628 170.198  0.00  0.00    +0.126 A 
ATOM     19  C   LIG    1      175.250 180.025 170.570  0.00  0.00    +0.063 A 
ATOM     20  C   LIG    1      175.132 178.662 170.402  0.00  0.00    +0.117 A 
ATOM     21  N   LIG    1      176.135 177.959 169.893  0.00  0.00    -0.230 NA
BRANCH  18  22
ATOM     22  N   LIG    1      176.616 182.000 170.352  0.00  0.00    -0.315 N 
ATOM     23  C   LIG    1      176.026 182.596 171.566  0.00  0.00    +0.106 C 
ATOM     24  C   LIG    1      175.732 184.067 171.220  0.00  0.00    +0.019 C 
ATOM     25  C   LIG    1      177.065 184.744 170.856  0.00  0.00    +0.003 C 
ATOM     26  C   LIG    1      177.685 184.045 169.635  0.00  0.00    +0.019 C 
ATOM     27  C   LIG    1      177.936 182.568 169.996  0.00  0.00    +0.106 C 
ENDBRANCH  18  22
ENDBRANCH  15  16
ENDBRANCH   1  15
TORSDOF 6
