REMARK VINA RESULT:     -10.4     52.694     54.443
REMARK  Name = 
REMARK                            x       y       z     vdW  Elec       q    Type
REMARK                         _______ _______ _______ _____ _____    ______ ____
ROOT
ATOM      1  C   LIG    1      196.648 134.028 143.353  0.00  0.00    +0.046 C 
ATOM      2  C   LIG    1      196.167 134.595 142.985  0.00  0.00    +0.024 C 
ATOM      3  C   LIG    1      197.072 135.584 143.252  0.00  0.00    +0.072 C 
ATOM      4  N   LIG    1      197.607 135.049 143.643  0.00  0.00    -0.274 NA
ATOM      5  C   LIG    1      198.327 135.277 143.972  0.00  0.00    +0.098 C 
ATOM      6  C   LIG    1      198.802 134.710 144.337  0.00  0.00    -0.013 C 
ATOM      7  C   LIG    1      198.560 133.923 144.374  0.00  0.00    -0.025 C 
ATOM      8  C   LIG    1      197.844 133.701 144.046  0.00  0.00    +0.067 C 
ATOM      9  C   LIG    1      197.601 132.903 144.084  0.00  0.00    +0.212 C 
ATOM     10  C   LIG    1      196.883 132.677 143.756  0.00  0.00    +0.263 C 
ATOM     11  O   LIG    1      197.362 132.120 144.121  0.00  0.00    -0.209 OA
ATOM     12  C   LIG    1      197.363 134.257 143.680  0.00  0.00    +0.087 C 
ATOM     13  C   LIG    1      196.402 133.233 143.389  0.00  0.00    +0.145 C 
ATOM     14  N   LIG    1      195.682 133.005 143.060  0.00  0.00    -0.255 N 
ATOM     15  C   LIG    1      195.440 132.218 143.097  0.00  0.00    +0.307 C 
ATOM     16  O   LIG    1      194.714 131.995 142.764  0.00  0.00    -0.265 OA
ATOM     17  C   LIG    1      195.206 133.572 142.694  0.00  0.00    +0.053 A 
ATOM     18  C   LIG    1      194.505 133.316 142.381  0.00  0.00    +0.051 A 
ATOM     19  C   LIG    1      194.009 133.865 142.008  0.00  0.00    +0.137 A 
ATOM     20  C   LIG    1      194.228 134.653 141.959  0.00  0.00    +0.026 A 
ATOM     21  C   LIG    1      194.941 134.907 142.280  0.00  0.00    -0.003 A 
ATOM     22  C   LIG    1      195.446 134.362 142.656  0.00  0.00    -0.007 A 
ENDROOT
BRANCH  20  23
ATOM     23  C   LIG    1      192.983 136.016 141.027  0.00  0.00    +0.146 C 
ATOM     24  C   LIG    1      193.402 135.890 140.321  0.00  0.00    +0.022 C 
ATOM     25  C   LIG    1      194.010 135.342 140.416  0.00  0.00    +0.020 C 
ATOM     26  C   LIG    1      194.547 135.071 139.844  0.00  0.00    +0.033 C 
ATOM     27  C   LIG    1      194.608 135.277 139.054  0.00  0.00    +0.141 C 
ATOM     28  O   LIG    1      195.119 135.135 138.154  0.00  0.00    -0.224 OA
ATOM     29  C   LIG    1      194.147 135.808 138.626  0.00  0.00    +0.103 C 
ATOM     30  N   LIG    1      193.509 136.266 138.889  0.00  0.00    -0.270 NA
ATOM     31  C   LIG    1      193.178 136.303 139.638  0.00  0.00    +0.077 C 
ATOM     32  C   LIG    1      192.545 136.835 139.658  0.00  0.00    +0.045 C 
ATOM     33  C   LIG    1      192.133 136.956 140.362  0.00  0.00    -0.005 A 
ATOM     34  C   LIG    1      191.089 137.612 141.077  0.00  0.00    +0.015 A 
ATOM     35  C   LIG    1      191.305 137.205 141.761  0.00  0.00    +0.081 A 
ATOM     36  C   LIG    1      190.898 137.322 142.467  0.00  0.00    +0.019 A 
ATOM     37  C   LIG    1      190.265 137.854 142.486  0.00  0.00    +0.002 A 
ATOM     38  C   LIG    1      190.048 138.261 141.802  0.00  0.00    +0.000 A 
ATOM     39  N   LIG    1      191.939 136.670 141.746  0.00  0.00    -0.249 NA
ATOM     40  C   LIG    1      190.457 138.142 141.100  0.00  0.00    +0.001 A 
ATOM     41  C   LIG    1      194.042 135.642 139.410  0.00  0.00    +0.072 C 
ATOM     42  C   LIG    1      192.349 136.549 141.046  0.00  0.00    +0.068 A 
BRANCH  23  43
ATOM     43  C   LIG    1      192.817 135.785 142.172  0.00  0.00    +0.325 C 
ATOM     44  O   LIG    1      192.294 135.198 142.397  0.00  0.00    -0.249 OA
BRANCH  43  45
ATOM     45  O   LIG    1      193.225 136.214 142.740  0.00  0.00    -0.444 OA
ATOM     46  C   LIG    1      192.959 136.224 143.515  0.00  0.00    +0.256 C 
ENDBRANCH  43  45
ENDBRANCH  23  43
BRANCH  27  47
ATOM     47  C   LIG    1      195.187 134.723 139.239  0.00  0.00    +0.032 C 
ATOM     48  C   LIG    1      195.769 134.323 138.813  0.00  0.00    +0.003 C 
ENDBRANCH  27  47
ENDBRANCH  20  23
BRANCH  10  49
ATOM     49  C   LIG    1      196.503 131.468 143.807  0.00  0.00    +0.350 C 
ATOM     50  O   LIG    1      196.040 131.194 144.337  0.00  0.00    -0.247 OA
BRANCH  49  51
ATOM     51  O   LIG    1      196.774 130.936 143.226  0.00  0.00    -0.443 OA
ATOM     52  C   LIG    1      196.519 130.210 143.261  0.00  0.00    +0.256 C 
ENDBRANCH  49  51
ENDBRANCH  10  49
BRANCH   8  53
ATOM     53  C   LIG    1      198.320 133.139 144.411  0.00  0.00    +0.009 C 
ATOM     54  C   LIG    1      199.140 133.187 144.323  0.00  0.00    +0.000 C 
ENDBRANCH   8  53
BRANCH  19  55
ATOM     55  O   LIG    1      193.265 133.632 141.668  0.00  0.00    -0.472 OA
ATOM     56  C   LIG    1      193.125 132.715 141.394  0.00  0.00    +0.252 C 
ENDBRANCH  19  55
BRANCH   9  57
ATOM     57  O   LIG    1      198.080 132.345 144.450  0.00  0.00    -0.449 OA
BRANCH  57  58
ATOM     58  C   LIG    1      198.032 132.240 145.116  0.00  0.00    +0.318 C 
ATOM     59  C   LIG    1      198.505 131.883 145.438  0.00  0.00    +0.121 C 
ATOM     60  O   LIG    1      197.507 132.494 145.456  0.00  0.00    -0.250 OA
ENDBRANCH  57  58
ENDBRANCH   9  57
TORSDOF 10
