MODEL 1
REMARK VINA RESULT:      -6.6      0.000      0.000
REMARK  Name = 
REMARK                            x       y       z     vdW  Elec       q    Type
REMARK                         _______ _______ _______ _____ _____    ______ ____
ROOT
ATOM      1  C   LIG    1      166.537 149.839 150.606  0.00  0.00    -0.010 A 
ATOM      2  C   LIG    1      166.007 151.075 150.249  0.00  0.00    -0.007 A 
ATOM      3  C   LIG    1      166.752 152.010 149.591  0.00  0.00    -0.010 A 
ATOM      4  C   LIG    1      168.032 151.710 149.285  0.00  0.00    -0.006 A 
ATOM      5  C   LIG    1      168.649 150.478 149.606  0.00  0.00    +0.002 A 
ATOM      6  C   LIG    1      167.846 149.587 150.265  0.00  0.00    -0.006 A 
ENDROOT
BRANCH   1   8
ATOM      7  C   LIG    1      164.625 149.549 152.192  0.00  0.00    +0.020 C 
ATOM      8  C   LIG    1      165.656 148.883 151.310  0.00  0.00    +0.098 C 
ATOM      9  C   LIG    1      166.440 147.822 152.079  0.00  0.00    +0.020 C 
BRANCH   8  10
ATOM     10  C   LIG    1      164.898 148.084 150.302  0.00  0.00    +0.075 C 
ATOM     11  N   LIG    1      164.312 147.460 149.494  0.00  0.00    -0.196 NA
ENDBRANCH   8  10
ENDBRANCH   1   8
BRANCH   3  12
ATOM     12  C   LIG    1      166.199 153.358 149.224  0.00  0.00    +0.098 C 
ATOM     13  C   LIG    1      164.882 153.571 149.882  0.00  0.00    +0.020 C 
ATOM     14  C   LIG    1      166.158 153.421 147.706  0.00  0.00    +0.020 C 
BRANCH  12  15
ATOM     15  C   LIG    1      167.113 154.392 149.701  0.00  0.00    +0.075 C 
ATOM     16  N   LIG    1      167.851 155.229 150.086  0.00  0.00    -0.196 NA
ENDBRANCH  12  15
ENDBRANCH   3  12
BRANCH   5  17
ATOM     17  C   LIG    1      170.011 150.371 149.166  0.00  0.00    +0.156 C 
BRANCH  17  18
ATOM     18  N   LIG    1      170.348 150.581 147.811  0.00  0.00    -0.226 N 
ATOM     19  N   LIG    1      171.073 151.584 147.338  0.00  0.00    -0.145 NA
ATOM     20  C   LIG    1      171.151 151.492 146.004  0.00  0.00    +0.221 A 
ATOM     21  N   LIG    1      170.456 150.397 145.611  0.00  0.00    -0.201 NA
ATOM     22  C   LIG    1      169.967 149.847 146.738  0.00  0.00    +0.198 A 
ENDBRANCH  17  18
ENDBRANCH   5  17
TORSDOF 6
ENDMDL
MODEL 2
REMARK VINA RESULT:      -6.0      1.643      5.088
REMARK  Name = 
REMARK                            x       y       z     vdW  Elec       q    Type
REMARK                         _______ _______ _______ _____ _____    ______ ____
ROOT
ATOM      1  C   LIG    1      169.585 150.857 148.293  0.00  0.00    -0.010 A 
ATOM      2  C   LIG    1      168.755 151.973 148.273  0.00  0.00    -0.007 A 
ATOM      3  C   LIG    1      167.596 152.018 148.992  0.00  0.00    -0.010 A 
ATOM      4  C   LIG    1      167.263 150.941 149.737  0.00  0.00    -0.006 A 
ATOM      5  C   LIG    1      168.049 149.768 149.818  0.00  0.00    +0.002 A 
ATOM      6  C   LIG    1      169.197 149.792 149.073  0.00  0.00    -0.006 A 
ENDROOT
BRANCH   1   8
ATOM      7  C   LIG    1      172.033 150.346 148.213  0.00  0.00    +0.020 C 
ATOM      8  C   LIG    1      170.825 150.899 147.490  0.00  0.00    +0.098 C 
ATOM      9  C   LIG    1      171.108 152.289 146.924  0.00  0.00    +0.020 C 
BRANCH   8  10
ATOM     10  C   LIG    1      170.644 150.063 146.267  0.00  0.00    +0.075 C 
ATOM     11  N   LIG    1      170.490 149.392 145.312  0.00  0.00    -0.196 NA
ENDBRANCH   8  10
ENDBRANCH   1   8
BRANCH   3  12
ATOM     12  C   LIG    1      166.678 153.207 148.958  0.00  0.00    +0.098 C 
ATOM     13  C   LIG    1      165.437 152.921 149.726  0.00  0.00    +0.020 C 
ATOM     14  C   LIG    1      166.445 153.544 147.494  0.00  0.00    +0.020 C 
BRANCH  12  15
ATOM     15  C   LIG    1      167.347 154.341 149.588  0.00  0.00    +0.075 C 
ATOM     16  N   LIG    1      167.886 155.259 150.098  0.00  0.00    -0.196 NA
ENDBRANCH  12  15
ENDBRANCH   3  12
BRANCH   5  17
ATOM     17  C   LIG    1      167.512 148.759 150.686  0.00  0.00    +0.156 C 
BRANCH  17  18
ATOM     18  N   LIG    1      167.204 147.473 150.192  0.00  0.00    -0.226 N 
ATOM     19  N   LIG    1      166.160 147.160 149.440  0.00  0.00    -0.145 NA
ATOM     20  C   LIG    1      166.160 145.842 149.198  0.00  0.00    +0.221 A 
ATOM     21  N   LIG    1      167.237 145.296 149.814  0.00  0.00    -0.201 NA
ATOM     22  C   LIG    1      167.870 146.315 150.422  0.00  0.00    +0.198 A 
ENDBRANCH  17  18
ENDBRANCH   5  17
TORSDOF 6
ENDMDL
MODEL 3
REMARK VINA RESULT:      -6.0      1.092      5.307
REMARK  Name = 
REMARK                            x       y       z     vdW  Elec       q    Type
REMARK                         _______ _______ _______ _____ _____    ______ ____
ROOT
ATOM      1  C   LIG    1      168.716 150.496 148.830  0.00  0.00    -0.010 A 
ATOM      2  C   LIG    1      168.091 151.724 148.638  0.00  0.00    -0.007 A 
ATOM      3  C   LIG    1      166.943 152.055 149.298  0.00  0.00    -0.010 A 
ATOM      4  C   LIG    1      166.416 151.155 150.156  0.00  0.00    -0.006 A 
ATOM      5  C   LIG    1      166.988 149.887 150.414  0.00  0.00    +0.002 A 
ATOM      6  C   LIG    1      168.136 149.621 149.719  0.00  0.00    -0.006 A 
ENDROOT
BRANCH   1   8
ATOM      7  C   LIG    1      170.023 148.832 147.495  0.00  0.00    +0.020 C 
ATOM      8  C   LIG    1      169.961 150.226 148.080  0.00  0.00    +0.098 C 
ATOM      9  C   LIG    1      171.215 150.541 148.893  0.00  0.00    +0.020 C 
BRANCH   8  10
ATOM     10  C   LIG    1      170.053 151.172 146.929  0.00  0.00    +0.075 C 
ATOM     11  N   LIG    1      170.126 151.933 146.033  0.00  0.00    -0.196 NA
ENDBRANCH   8  10
ENDBRANCH   1   8
BRANCH   3  12
ATOM     12  C   LIG    1      166.245 153.366 149.079  0.00  0.00    +0.098 C 
ATOM     13  C   LIG    1      164.931 153.373 149.777  0.00  0.00    +0.020 C 
ATOM     14  C   LIG    1      166.156 153.575 147.576  0.00  0.00    +0.020 C 
BRANCH  12  15
ATOM     15  C   LIG    1      167.059 154.439 149.643  0.00  0.00    +0.075 C 
ATOM     16  N   LIG    1      167.717 155.307 150.098  0.00  0.00    -0.196 NA
ENDBRANCH  12  15
ENDBRANCH   3  12
BRANCH   5  17
ATOM     17  C   LIG    1      166.268 149.104 151.378  0.00  0.00    +0.156 C 
BRANCH  17  18
ATOM     18  N   LIG    1      165.188 148.285 150.980  0.00  0.00    -0.226 N 
ATOM     19  N   LIG    1      165.044 147.714 149.794  0.00  0.00    -0.145 NA
ATOM     20  C   LIG    1      163.880 147.051 149.753  0.00  0.00    +0.221 A 
ATOM     21  N   LIG    1      163.262 147.203 150.950  0.00  0.00    -0.201 NA
ATOM     22  C   LIG    1      164.082 147.966 151.694  0.00  0.00    +0.198 A 
ENDBRANCH  17  18
ENDBRANCH   5  17
TORSDOF 6
ENDMDL
MODEL 4
REMARK VINA RESULT:      -5.8      6.815      8.281
REMARK  Name = 
REMARK                            x       y       z     vdW  Elec       q    Type
REMARK                         _______ _______ _______ _____ _____    ______ ____
ROOT
ATOM      1  C   LIG    1      168.128 143.677 150.516  0.00  0.00    -0.010 A 
ATOM      2  C   LIG    1      166.772 143.954 150.662  0.00  0.00    -0.007 A 
ATOM      3  C   LIG    1      165.997 144.319 149.599  0.00  0.00    -0.010 A 
ATOM      4  C   LIG    1      166.578 144.408 148.383  0.00  0.00    -0.006 A 
ATOM      5  C   LIG    1      167.947 144.141 148.145  0.00  0.00    +0.002 A 
ATOM      6  C   LIG    1      168.664 143.780 149.253  0.00  0.00    -0.006 A 
ENDROOT
BRANCH   1   8
ATOM      7  C   LIG    1      168.965 144.365 152.770  0.00  0.00    +0.020 C 
ATOM      8  C   LIG    1      168.888 143.280 151.720  0.00  0.00    +0.098 C 
ATOM      9  C   LIG    1      170.275 142.737 151.383  0.00  0.00    +0.020 C 
BRANCH   8  10
ATOM     10  C   LIG    1      168.212 142.116 152.363  0.00  0.00    +0.075 C 
ATOM     11  N   LIG    1      167.663 141.206 152.871  0.00  0.00    -0.196 NA
ENDBRANCH   8  10
ENDBRANCH   1   8
BRANCH   3  12
ATOM     12  C   LIG    1      164.538 144.646 149.748  0.00  0.00    +0.098 C 
ATOM     13  C   LIG    1      164.296 146.076 149.421  0.00  0.00    +0.020 C 
ATOM     14  C   LIG    1      164.138 144.249 151.159  0.00  0.00    +0.020 C 
BRANCH  12  15
ATOM     15  C   LIG    1      163.771 143.833 148.808  0.00  0.00    +0.075 C 
ATOM     16  N   LIG    1      163.149 143.176 148.050  0.00  0.00    -0.196 NA
ENDBRANCH  12  15
ENDBRANCH   3  12
BRANCH   5  17
ATOM     17  C   LIG    1      168.342 144.278 146.772  0.00  0.00    +0.156 C 
BRANCH  17  18
ATOM     18  N   LIG    1      167.887 143.364 145.797  0.00  0.00    -0.226 N 
ATOM     19  N   LIG    1      168.380 142.154 145.577  0.00  0.00    -0.145 NA
ATOM     20  C   LIG    1      167.737 141.587 144.547  0.00  0.00    +0.221 A 
ATOM     21  N   LIG    1      166.804 142.461 144.095  0.00  0.00    -0.201 NA
ATOM     22  C   LIG    1      166.909 143.551 144.877  0.00  0.00    +0.198 A 
ENDBRANCH  17  18
ENDBRANCH   5  17
TORSDOF 6
ENDMDL
MODEL 5
REMARK VINA RESULT:      -5.7     49.913     52.658
REMARK  Name = 
REMARK                            x       y       z     vdW  Elec       q    Type
REMARK                         _______ _______ _______ _____ _____    ______ ____
ROOT
ATOM      1  C   LIG    1      164.527 103.234 174.303  0.00  0.00    -0.010 A 
ATOM      2  C   LIG    1      163.310 103.797 174.674  0.00  0.00    -0.007 A 
ATOM      3  C   LIG    1      162.795 104.882 174.026  0.00  0.00    -0.010 A 
ATOM      4  C   LIG    1      163.499 105.409 173.001  0.00  0.00    -0.006 A 
ATOM      5  C   LIG    1      164.741 104.898 172.556  0.00  0.00    +0.002 A 
ATOM      6  C   LIG    1      165.198 103.810 173.249  0.00  0.00    -0.006 A 
ENDROOT
BRANCH   1   8
ATOM      7  C   LIG    1      166.347 102.263 175.718  0.00  0.00    +0.020 C 
ATOM      8  C   LIG    1      165.004 102.054 175.056  0.00  0.00    +0.098 C 
ATOM      9  C   LIG    1      164.994 100.780 174.213  0.00  0.00    +0.020 C 
BRANCH   8  10
ATOM     10  C   LIG    1      164.035 101.748 176.149  0.00  0.00    +0.075 C 
ATOM     11  N   LIG    1      163.285 101.501 177.022  0.00  0.00    -0.196 NA
ENDBRANCH   8  10
ENDBRANCH   1   8
BRANCH   3  12
ATOM     12  C   LIG    1      161.495 105.515 174.433  0.00  0.00    +0.098 C 
ATOM     13  C   LIG    1      160.791 104.654 175.420  0.00  0.00    +0.020 C 
ATOM     14  C   LIG    1      160.711 105.776 173.158  0.00  0.00    +0.020 C 
BRANCH  12  15
ATOM     15  C   LIG    1      161.771 106.798 175.072  0.00  0.00    +0.075 C 
ATOM     16  N   LIG    1      161.992 107.836 175.589  0.00  0.00    -0.196 NA
ENDBRANCH  12  15
ENDBRANCH   3  12
BRANCH   5  17
ATOM     17  C   LIG    1      165.300 105.603 171.437  0.00  0.00    +0.156 C 
BRANCH  17  18
ATOM     18  N   LIG    1      165.295 105.027 170.148  0.00  0.00    -0.226 N 
ATOM     19  N   LIG    1      166.058 104.023 169.743  0.00  0.00    -0.145 NA
ATOM     20  C   LIG    1      165.820 103.770 168.450  0.00  0.00    +0.221 A 
ATOM     21  N   LIG    1      164.875 104.638 168.013  0.00  0.00    -0.201 NA
ATOM     22  C   LIG    1      164.562 105.406 169.073  0.00  0.00    +0.198 A 
ENDBRANCH  17  18
ENDBRANCH   5  17
TORSDOF 6
ENDMDL
MODEL 6
REMARK VINA RESULT:      -5.6     49.154     52.783
REMARK  Name = 
REMARK                            x       y       z     vdW  Elec       q    Type
REMARK                         _______ _______ _______ _____ _____    ______ ____
ROOT
ATOM      1  C   LIG    1      164.080 105.130 171.453  0.00  0.00    -0.010 A 
ATOM      2  C   LIG    1      162.987 105.372 172.279  0.00  0.00    -0.007 A 
ATOM      3  C   LIG    1      162.930 104.888 173.553  0.00  0.00    -0.010 A 
ATOM      4  C   LIG    1      163.972 104.157 174.007  0.00  0.00    -0.006 A 
ATOM      5  C   LIG    1      165.123 103.867 173.237  0.00  0.00    +0.002 A 
ATOM      6  C   LIG    1      165.113 104.384 171.971  0.00  0.00    -0.006 A 
ENDROOT
BRANCH   1   8
ATOM      7  C   LIG    1      164.653 107.090 170.008  0.00  0.00    +0.020 C 
ATOM      8  C   LIG    1      164.060 105.702 170.090  0.00  0.00    +0.098 C 
ATOM      9  C   LIG    1      162.671 105.655 169.456  0.00  0.00    +0.020 C 
BRANCH   8  10
ATOM     10  C   LIG    1      164.877 104.839 169.187  0.00  0.00    +0.075 C 
ATOM     11  N   LIG    1      165.536 104.161 168.484  0.00  0.00    -0.196 NA
ENDBRANCH   8  10
ENDBRANCH   1   8
BRANCH   3  12
ATOM     12  C   LIG    1      161.744 105.120 174.445  0.00  0.00    +0.098 C 
ATOM     13  C   LIG    1      161.814 104.231 175.636  0.00  0.00    +0.020 C 
ATOM     14  C   LIG    1      160.502 104.924 173.591  0.00  0.00    +0.020 C 
BRANCH  12  15
ATOM     15  C   LIG    1      161.765 106.502 174.914  0.00  0.00    +0.075 C 
ATOM     16  N   LIG    1      161.784 107.620 175.292  0.00  0.00    -0.196 NA
ENDBRANCH  12  15
ENDBRANCH   3  12
BRANCH   5  17
ATOM     17  C   LIG    1      166.113 103.092 173.931  0.00  0.00    +0.156 C 
BRANCH  17  18
ATOM     18  N   LIG    1      165.753 102.284 175.032  0.00  0.00    -0.226 N 
ATOM     19  N   LIG    1      165.925 102.591 176.308  0.00  0.00    -0.145 NA
ATOM     20  C   LIG    1      165.512 101.573 177.075  0.00  0.00    +0.221 A 
ATOM     21  N   LIG    1      165.063 100.584 176.264  0.00  0.00    -0.201 NA
ATOM     22  C   LIG    1      165.218 101.039 175.007  0.00  0.00    +0.198 A 
ENDBRANCH  17  18
ENDBRANCH   5  17
TORSDOF 6
ENDMDL
MODEL 7
REMARK VINA RESULT:      -5.6     66.847     69.897
REMARK  Name = 
REMARK                            x       y       z     vdW  Elec       q    Type
REMARK                         _______ _______ _______ _____ _____    ______ ____
ROOT
ATOM      1  C   LIG    1      186.201  85.287 157.206  0.00  0.00    -0.010 A 
ATOM      2  C   LIG    1      187.517  84.840 157.249  0.00  0.00    -0.007 A 
ATOM      3  C   LIG    1      187.905  83.833 158.084  0.00  0.00    -0.010 A 
ATOM      4  C   LIG    1      186.973  83.267 158.881  0.00  0.00    -0.006 A 
ATOM      5  C   LIG    1      185.613  83.657 158.899  0.00  0.00    +0.002 A 
ATOM      6  C   LIG    1      185.294  84.671 158.037  0.00  0.00    -0.006 A 
ENDROOT
BRANCH   1   8
ATOM      7  C   LIG    1      184.462  86.293 155.715  0.00  0.00    +0.020 C 
ATOM      8  C   LIG    1      185.868  86.377 156.264  0.00  0.00    +0.098 C 
ATOM      9  C   LIG    1      186.894  86.513 155.141  0.00  0.00    +0.020 C 
BRANCH   8  10
ATOM     10  C   LIG    1      185.966  87.684 156.977  0.00  0.00    +0.075 C 
ATOM     11  N   LIG    1      186.062  88.714 157.540  0.00  0.00    -0.196 NA
ENDBRANCH   8  10
ENDBRANCH   1   8
BRANCH   3  12
ATOM     12  C   LIG    1      189.329  83.359 158.159  0.00  0.00    +0.098 C 
ATOM     13  C   LIG    1      190.235  84.348 157.516  0.00  0.00    +0.020 C 
ATOM     14  C   LIG    1      189.368  81.974 157.534  0.00  0.00    +0.020 C 
BRANCH  12  15
ATOM     15  C   LIG    1      189.717  83.239 159.562  0.00  0.00    +0.075 C 
ATOM     16  N   LIG    1      190.032  83.144 160.695  0.00  0.00    -0.196 NA
ENDBRANCH  12  15
ENDBRANCH   3  12
BRANCH   5  17
ATOM     17  C   LIG    1      184.798  82.904 159.810  0.00  0.00    +0.156 C 
BRANCH  17  18
ATOM     18  N   LIG    1      183.903  83.558 160.685  0.00  0.00    -0.226 N 
ATOM     19  N   LIG    1      182.718  84.049 160.357  0.00  0.00    -0.145 NA
ATOM     20  C   LIG    1      182.166  84.642 161.425  0.00  0.00    +0.221 A 
ATOM     21  N   LIG    1      183.025  84.525 162.467  0.00  0.00    -0.201 NA
ATOM     22  C   LIG    1      184.090  83.854 161.994  0.00  0.00    +0.198 A 
ENDBRANCH  17  18
ENDBRANCH   5  17
TORSDOF 6
ENDMDL
MODEL 8
REMARK VINA RESULT:      -5.6     49.738     52.399
REMARK  Name = 
REMARK                            x       y       z     vdW  Elec       q    Type
REMARK                         _______ _______ _______ _____ _____    ______ ____
ROOT
ATOM      1  C   LIG    1      205.446 113.226 146.521  0.00  0.00    -0.010 A 
ATOM      2  C   LIG    1      204.066 113.052 146.489  0.00  0.00    -0.007 A 
ATOM      3  C   LIG    1      203.252 113.906 145.804  0.00  0.00    -0.010 A 
ATOM      4  C   LIG    1      203.818 114.940 145.145  0.00  0.00    -0.006 A 
ATOM      5  C   LIG    1      205.210 115.189 145.122  0.00  0.00    +0.002 A 
ATOM      6  C   LIG    1      205.967 114.295 145.829  0.00  0.00    -0.006 A 
ENDROOT
BRANCH   1   8
ATOM      7  C   LIG    1      205.436 111.404 148.235  0.00  0.00    +0.020 C 
ATOM      8  C   LIG    1      206.252 112.247 147.282  0.00  0.00    +0.098 C 
ATOM      9  C   LIG    1      207.439 112.894 147.992  0.00  0.00    +0.020 C 
BRANCH   8  10
ATOM     10  C   LIG    1      206.899 111.301 146.326  0.00  0.00    +0.075 C 
ATOM     11  N   LIG    1      207.422 110.567 145.568  0.00  0.00    -0.196 NA
ENDBRANCH   8  10
ENDBRANCH   1   8
BRANCH   3  12
ATOM     12  C   LIG    1      201.759 113.744 145.784  0.00  0.00    +0.098 C 
ATOM     13  C   LIG    1      201.361 112.538 146.558  0.00  0.00    +0.020 C 
ATOM     14  C   LIG    1      201.336 113.718 144.324  0.00  0.00    +0.020 C 
BRANCH  12  15
ATOM     15  C   LIG    1      201.146 114.908 146.418  0.00  0.00    +0.075 C 
ATOM     16  N   LIG    1      200.648 115.848 146.929  0.00  0.00    -0.196 NA
ENDBRANCH  12  15
ENDBRANCH   3  12
BRANCH   5  17
ATOM     17  C   LIG    1      205.589 116.333 144.341  0.00  0.00    +0.156 C 
BRANCH  17  18
ATOM     18  N   LIG    1      205.264 116.407 142.968  0.00  0.00    -0.226 N 
ATOM     19  N   LIG    1      204.437 117.279 142.413  0.00  0.00    -0.145 NA
ATOM     20  C   LIG    1      204.331 117.025 141.102  0.00  0.00    +0.221 A 
ATOM     21  N   LIG    1      205.115 115.959 140.809  0.00  0.00    -0.201 NA
ATOM     22  C   LIG    1      205.684 115.590 141.971  0.00  0.00    +0.198 A 
ENDBRANCH  17  18
ENDBRANCH   5  17
TORSDOF 6
ENDMDL
MODEL 9
REMARK VINA RESULT:      -5.6     66.317     69.036
REMARK  Name = 
REMARK                            x       y       z     vdW  Elec       q    Type
REMARK                         _______ _______ _______ _____ _____    ______ ____
ROOT
ATOM      1  C   LIG    1      189.804  87.939 158.465  0.00  0.00    -0.010 A 
ATOM      2  C   LIG    1      189.229  86.682 158.625  0.00  0.00    -0.007 A 
ATOM      3  C   LIG    1      189.946  85.536 158.430  0.00  0.00    -0.010 A 
ATOM      4  C   LIG    1      191.244  85.646 158.074  0.00  0.00    -0.006 A 
ATOM      5  C   LIG    1      191.908  86.882 157.894  0.00  0.00    +0.002 A 
ATOM      6  C   LIG    1      191.131  87.989 158.105  0.00  0.00    -0.006 A 
ENDROOT
BRANCH   1   8
ATOM      7  C   LIG    1      187.474  88.826 158.667  0.00  0.00    +0.020 C 
ATOM      8  C   LIG    1      188.955  89.126 158.705  0.00  0.00    +0.098 C 
ATOM      9  C   LIG    1      189.308  90.292 157.785  0.00  0.00    +0.020 C 
BRANCH   8  10
ATOM     10  C   LIG    1      189.244  89.664 160.066  0.00  0.00    +0.075 C 
ATOM     11  N   LIG    1      189.456  90.082 161.146  0.00  0.00    -0.196 NA
ENDBRANCH   8  10
ENDBRANCH   1   8
BRANCH   3  12
ATOM     12  C   LIG    1      189.330  84.174 158.574  0.00  0.00    +0.098 C 
ATOM     13  C   LIG    1      189.786  83.284 157.472  0.00  0.00    +0.020 C 
ATOM     14  C   LIG    1      187.824  84.373 158.635  0.00  0.00    +0.020 C 
BRANCH  12  15
ATOM     15  C   LIG    1      189.766  83.586 159.837  0.00  0.00    +0.075 C 
ATOM     16  N   LIG    1      190.120  83.113 160.858  0.00  0.00    -0.196 NA
ENDBRANCH  12  15
ENDBRANCH   3  12
BRANCH   5  17
ATOM     17  C   LIG    1      193.292  86.759 157.536  0.00  0.00    +0.156 C 
BRANCH  17  18
ATOM     18  N   LIG    1      194.302  87.288 158.371  0.00  0.00    -0.226 N 
ATOM     19  N   LIG    1      194.753  86.737 159.487  0.00  0.00    -0.145 NA
ATOM     20  C   LIG    1      195.673  87.536 160.042  0.00  0.00    +0.221 A 
ATOM     21  N   LIG    1      195.816  88.631 159.256  0.00  0.00    -0.201 NA
ATOM     22  C   LIG    1      194.963  88.462 158.230  0.00  0.00    +0.198 A 
ENDBRANCH  17  18
ENDBRANCH   5  17
TORSDOF 6
ENDMDL
