REMARK VINA RESULT:      -5.7     49.913     52.658
REMARK  Name = 
REMARK                            x       y       z     vdW  Elec       q    Type
REMARK                         _______ _______ _______ _____ _____    ______ ____
ROOT
ATOM      1  C   LIG    1      164.527 103.234 174.303  0.00  0.00    -0.010 A 
ATOM      2  C   LIG    1      163.310 103.797 174.674  0.00  0.00    -0.007 A 
ATOM      3  C   LIG    1      162.795 104.882 174.026  0.00  0.00    -0.010 A 
ATOM      4  C   LIG    1      163.499 105.409 173.001  0.00  0.00    -0.006 A 
ATOM      5  C   LIG    1      164.741 104.898 172.556  0.00  0.00    +0.002 A 
ATOM      6  C   LIG    1      165.198 103.810 173.249  0.00  0.00    -0.006 A 
ENDROOT
BRANCH   1   8
ATOM      7  C   LIG    1      166.347 102.263 175.718  0.00  0.00    +0.020 C 
ATOM      8  C   LIG    1      165.004 102.054 175.056  0.00  0.00    +0.098 C 
ATOM      9  C   LIG    1      164.994 100.780 174.213  0.00  0.00    +0.020 C 
BRANCH   8  10
ATOM     10  C   LIG    1      164.035 101.748 176.149  0.00  0.00    +0.075 C 
ATOM     11  N   LIG    1      163.285 101.501 177.022  0.00  0.00    -0.196 NA
ENDBRANCH   8  10
ENDBRANCH   1   8
BRANCH   3  12
ATOM     12  C   LIG    1      161.495 105.515 174.433  0.00  0.00    +0.098 C 
ATOM     13  C   LIG    1      160.791 104.654 175.420  0.00  0.00    +0.020 C 
ATOM     14  C   LIG    1      160.711 105.776 173.158  0.00  0.00    +0.020 C 
BRANCH  12  15
ATOM     15  C   LIG    1      161.771 106.798 175.072  0.00  0.00    +0.075 C 
ATOM     16  N   LIG    1      161.992 107.836 175.589  0.00  0.00    -0.196 NA
ENDBRANCH  12  15
ENDBRANCH   3  12
BRANCH   5  17
ATOM     17  C   LIG    1      165.300 105.603 171.437  0.00  0.00    +0.156 C 
BRANCH  17  18
ATOM     18  N   LIG    1      165.295 105.027 170.148  0.00  0.00    -0.226 N 
ATOM     19  N   LIG    1      166.058 104.023 169.743  0.00  0.00    -0.145 NA
ATOM     20  C   LIG    1      165.820 103.770 168.450  0.00  0.00    +0.221 A 
ATOM     21  N   LIG    1      164.875 104.638 168.013  0.00  0.00    -0.201 NA
ATOM     22  C   LIG    1      164.562 105.406 169.073  0.00  0.00    +0.198 A 
ENDBRANCH  17  18
ENDBRANCH   5  17
TORSDOF 6
