MODEL 1
REMARK VINA RESULT:      -7.7      0.000      0.000
REMARK  Name = 
REMARK                            x       y       z     vdW  Elec       q    Type
REMARK                         _______ _______ _______ _____ _____    ______ ____
ROOT
ATOM      1  C   LIG    1      169.091 152.218 147.964  0.00  0.00    +0.155 A 
ATOM      2  C   LIG    1      169.894 151.137 147.637  0.00  0.00    +0.054 A 
ATOM      3  C   LIG    1      170.791 150.606 148.541  0.00  0.00    +0.089 A 
ATOM      4  C   LIG    1      171.606 149.515 148.220  0.00  0.00    +0.059 A 
ATOM      5  C   LIG    1      171.519 148.949 146.967  0.00  0.00    +0.174 A 
ATOM      6  C   LIG    1      170.616 149.497 146.082  0.00  0.00    +0.173 A 
ATOM      7  N   LIG    1      170.876 151.159 149.763  0.00  0.00    -0.224 NA
ATOM      8  C   LIG    1      170.100 152.207 150.087  0.00  0.00    +0.200 A 
ATOM      9  C   LIG    1      169.816 150.561 146.385  0.00  0.00    +0.044 A 
ATOM     10  N   LIG    1      169.229 152.717 149.197  0.00  0.00    -0.207 NA
ENDROOT
BRANCH   1  11
ATOM     11  N   LIG    1      168.201 152.702 146.983  0.00  0.00    -0.194 NA
BRANCH  11  14
ATOM     12  C   LIG    1      164.740 152.617 148.346  0.00  0.00    +0.044 A 
ATOM     13  C   LIG    1      166.098 152.810 148.204  0.00  0.00    +0.025 A 
ATOM     14  C   LIG    1      166.794 152.473 147.063  0.00  0.00    +0.073 A 
ATOM     15  C   LIG    1      166.122 151.914 145.996  0.00  0.00    +0.017 A 
ATOM     16  C   LIG    1      164.764 151.709 146.112  0.00  0.00    +0.002 A 
ATOM     17  C   LIG    1      164.088 152.052 147.258  0.00  0.00    +0.008 A 
BRANCH  12  19
ATOM     18  C   LIG    1      163.439 153.266 150.574  0.00  0.00    -0.009 C 
ATOM     19  C   LIG    1      164.027 152.976 149.552  0.00  0.00    -0.051 C 
ENDBRANCH  12  19
ENDBRANCH  11  14
ENDBRANCH   1  11
BRANCH   6  20
ATOM     20  O   LIG    1      170.544 148.909 144.822  0.00  0.00    -0.470 OA
BRANCH  20  21
ATOM     21  C   LIG    1      169.855 147.724 144.542  0.00  0.00    +0.237 C 
BRANCH  21  22
ATOM     22  C   LIG    1      168.368 147.887 144.769  0.00  0.00    +0.189 C 
BRANCH  22  23
ATOM     23  O   LIG    1      167.674 146.933 143.999  0.00  0.00    -0.347 OA
ATOM     24  C   LIG    1      167.207 145.885 144.776  0.00  0.00    +0.174 C 
ENDBRANCH  22  23
ENDBRANCH  21  22
ENDBRANCH  20  21
ENDBRANCH   6  20
BRANCH   5  25
ATOM     25  O   LIG    1      172.319 147.849 146.600  0.00  0.00    -0.470 OA
BRANCH  25  26
ATOM     26  C   LIG    1      171.982 146.548 147.041  0.00  0.00    +0.237 C 
BRANCH  26  27
ATOM     27  C   LIG    1      172.490 145.578 145.987  0.00  0.00    +0.189 C 
BRANCH  27  28
ATOM     28  O   LIG    1      172.002 144.303 146.175  0.00  0.00    -0.347 OA
ATOM     29  C   LIG    1      170.773 144.146 145.542  0.00  0.00    +0.174 C 
ENDBRANCH  27  28
ENDBRANCH  26  27
ENDBRANCH  25  26
ENDBRANCH   5  25
TORSDOF 11
ENDMDL
MODEL 2
REMARK VINA RESULT:      -7.6      1.779      2.230
REMARK  Name = 
REMARK                            x       y       z     vdW  Elec       q    Type
REMARK                         _______ _______ _______ _____ _____    ______ ____
ROOT
ATOM      1  C   LIG    1      169.054 151.404 145.904  0.00  0.00    +0.155 A 
ATOM      2  C   LIG    1      169.721 150.196 145.769  0.00  0.00    +0.054 A 
ATOM      3  C   LIG    1      170.988 150.012 146.282  0.00  0.00    +0.089 A 
ATOM      4  C   LIG    1      171.669 148.797 146.151  0.00  0.00    +0.059 A 
ATOM      5  C   LIG    1      171.065 147.749 145.489  0.00  0.00    +0.174 A 
ATOM      6  C   LIG    1      169.800 147.958 144.986  0.00  0.00    +0.173 A 
ATOM      7  N   LIG    1      171.576 151.034 146.927  0.00  0.00    -0.224 NA
ATOM      8  C   LIG    1      170.935 152.207 147.062  0.00  0.00    +0.200 A 
ATOM      9  C   LIG    1      169.127 149.139 145.109  0.00  0.00    +0.044 A 
ATOM     10  N   LIG    1      169.700 152.376 146.557  0.00  0.00    -0.207 NA
ENDROOT
BRANCH   1  11
ATOM     11  N   LIG    1      167.761 151.511 145.351  0.00  0.00    -0.194 NA
BRANCH  11  14
ATOM     12  C   LIG    1      165.522 151.216 148.308  0.00  0.00    +0.044 A 
ATOM     13  C   LIG    1      166.612 151.145 147.465  0.00  0.00    +0.025 A 
ATOM     14  C   LIG    1      166.596 151.617 146.169  0.00  0.00    +0.073 A 
ATOM     15  C   LIG    1      165.448 152.193 145.667  0.00  0.00    +0.017 A 
ATOM     16  C   LIG    1      164.344 152.275 146.489  0.00  0.00    +0.002 A 
ATOM     17  C   LIG    1      164.379 151.799 147.778  0.00  0.00    +0.008 A 
BRANCH  12  19
ATOM     18  C   LIG    1      165.603 150.290 150.800  0.00  0.00    -0.009 C 
ATOM     19  C   LIG    1      165.556 150.715 149.664  0.00  0.00    -0.051 C 
ENDBRANCH  12  19
ENDBRANCH  11  14
ENDBRANCH   1  11
BRANCH   6  20
ATOM     20  O   LIG    1      169.209 146.886 144.322  0.00  0.00    -0.470 OA
BRANCH  20  21
ATOM     21  C   LIG    1      167.857 146.542 144.425  0.00  0.00    +0.237 C 
BRANCH  21  22
ATOM     22  C   LIG    1      167.638 145.495 145.496  0.00  0.00    +0.189 C 
BRANCH  22  23
ATOM     23  O   LIG    1      167.242 144.287 144.888  0.00  0.00    -0.347 OA
ATOM     24  C   LIG    1      166.308 143.608 145.654  0.00  0.00    +0.174 C 
ENDBRANCH  22  23
ENDBRANCH  21  22
ENDBRANCH  20  21
ENDBRANCH   6  20
BRANCH   5  25
ATOM     25  O   LIG    1      171.713 146.508 145.333  0.00  0.00    -0.470 OA
BRANCH  25  26
ATOM     26  C   LIG    1      171.486 145.468 146.264  0.00  0.00    +0.237 C 
BRANCH  26  27
ATOM     27  C   LIG    1      171.255 144.198 145.461  0.00  0.00    +0.189 C 
BRANCH  27  28
ATOM     28  O   LIG    1      171.502 144.380 144.117  0.00  0.00    -0.347 OA
ATOM     29  C   LIG    1      170.418 143.957 143.354  0.00  0.00    +0.174 C 
ENDBRANCH  27  28
ENDBRANCH  26  27
ENDBRANCH  25  26
ENDBRANCH   5  25
TORSDOF 11
ENDMDL
MODEL 3
REMARK VINA RESULT:      -7.0      2.070      2.818
REMARK  Name = 
REMARK                            x       y       z     vdW  Elec       q    Type
REMARK                         _______ _______ _______ _____ _____    ______ ____
ROOT
ATOM      1  C   LIG    1      169.023 150.607 146.530  0.00  0.00    +0.155 A 
ATOM      2  C   LIG    1      169.387 149.349 146.075  0.00  0.00    +0.054 A 
ATOM      3  C   LIG    1      170.338 149.187 145.089  0.00  0.00    +0.089 A 
ATOM      4  C   LIG    1      170.712 147.922 144.624  0.00  0.00    +0.059 A 
ATOM      5  C   LIG    1      170.118 146.800 145.159  0.00  0.00    +0.174 A 
ATOM      6  C   LIG    1      169.172 146.988 146.143  0.00  0.00    +0.173 A 
ATOM      7  N   LIG    1      170.917 150.282 144.567  0.00  0.00    -0.224 NA
ATOM      8  C   LIG    1      170.569 151.504 145.003  0.00  0.00    +0.200 A 
ATOM      9  C   LIG    1      168.800 148.217 146.604  0.00  0.00    +0.044 A 
ATOM     10  N   LIG    1      169.641 151.651 145.965  0.00  0.00    -0.207 NA
ENDROOT
BRANCH   1  11
ATOM     11  N   LIG    1      168.043 150.687 147.540  0.00  0.00    -0.194 NA
BRANCH  11  14
ATOM     12  C   LIG    1      164.821 152.413 148.237  0.00  0.00    +0.044 A 
ATOM     13  C   LIG    1      166.048 151.798 148.381  0.00  0.00    +0.025 A 
ATOM     14  C   LIG    1      166.780 151.313 147.318  0.00  0.00    +0.073 A 
ATOM     15  C   LIG    1      166.284 151.436 146.037  0.00  0.00    +0.017 A 
ATOM     16  C   LIG    1      165.060 152.046 145.865  0.00  0.00    +0.002 A 
ATOM     17  C   LIG    1      164.345 152.524 146.937  0.00  0.00    +0.008 A 
BRANCH  12  19
ATOM     18  C   LIG    1      163.442 153.324 150.321  0.00  0.00    -0.009 C 
ATOM     19  C   LIG    1      164.067 152.915 149.363  0.00  0.00    -0.051 C 
ENDBRANCH  12  19
ENDBRANCH  11  14
ENDBRANCH   1  11
BRANCH   6  20
ATOM     20  O   LIG    1      168.585 145.840 146.670  0.00  0.00    -0.470 OA
BRANCH  20  21
ATOM     21  C   LIG    1      167.274 145.431 146.404  0.00  0.00    +0.237 C 
BRANCH  21  22
ATOM     22  C   LIG    1      166.977 145.469 144.921  0.00  0.00    +0.189 C 
BRANCH  22  23
ATOM     23  O   LIG    1      165.913 144.590 144.638  0.00  0.00    -0.347 OA
ATOM     24  C   LIG    1      165.296 144.139 145.794  0.00  0.00    +0.174 C 
ENDBRANCH  22  23
ENDBRANCH  21  22
ENDBRANCH  20  21
ENDBRANCH   6  20
BRANCH   5  25
ATOM     25  O   LIG    1      170.463 145.506 144.722  0.00  0.00    -0.470 OA
BRANCH  25  26
ATOM     26  C   LIG    1      171.670 144.909 145.158  0.00  0.00    +0.237 C 
BRANCH  26  27
ATOM     27  C   LIG    1      171.290 143.811 146.139  0.00  0.00    +0.189 C 
BRANCH  27  28
ATOM     28  O   LIG    1      171.400 144.224 147.449  0.00  0.00    -0.347 OA
ATOM     29  C   LIG    1      170.878 143.268 148.314  0.00  0.00    +0.174 C 
ENDBRANCH  27  28
ENDBRANCH  26  27
ENDBRANCH  25  26
ENDBRANCH   5  25
TORSDOF 11
ENDMDL
MODEL 4
REMARK VINA RESULT:      -6.8     39.187     43.913
REMARK  Name = 
REMARK                            x       y       z     vdW  Elec       q    Type
REMARK                         _______ _______ _______ _____ _____    ______ ____
ROOT
ATOM      1  C   LIG    1      199.578 116.281 144.476  0.00  0.00    +0.155 A 
ATOM      2  C   LIG    1      198.718 117.177 145.091  0.00  0.00    +0.054 A 
ATOM      3  C   LIG    1      198.894 117.559 146.404  0.00  0.00    +0.089 A 
ATOM      4  C   LIG    1      198.032 118.463 147.034  0.00  0.00    +0.059 A 
ATOM      5  C   LIG    1      196.972 118.991 146.330  0.00  0.00    +0.174 A 
ATOM      6  C   LIG    1      196.816 118.594 145.020  0.00  0.00    +0.173 A 
ATOM      7  N   LIG    1      199.929 117.043 147.091  0.00  0.00    -0.224 NA
ATOM      8  C   LIG    1      200.767 116.174 146.500  0.00  0.00    +0.200 A 
ATOM      9  C   LIG    1      197.652 117.713 144.396  0.00  0.00    +0.044 A 
ATOM     10  N   LIG    1      200.585 115.809 145.219  0.00  0.00    -0.207 NA
ENDROOT
BRANCH   1  11
ATOM     11  N   LIG    1      199.328 115.942 143.130  0.00  0.00    -0.194 NA
BRANCH  11  14
ATOM     12  C   LIG    1      197.099 113.460 141.483  0.00  0.00    +0.044 A 
ATOM     13  C   LIG    1      197.697 114.637 141.881  0.00  0.00    +0.025 A 
ATOM     14  C   LIG    1      198.756 114.687 142.762  0.00  0.00    +0.073 A 
ATOM     15  C   LIG    1      199.262 113.516 143.286  0.00  0.00    +0.017 A 
ATOM     16  C   LIG    1      198.682 112.324 142.905  0.00  0.00    +0.002 A 
ATOM     17  C   LIG    1      197.626 112.296 142.026  0.00  0.00    +0.008 A 
BRANCH  12  19
ATOM     18  C   LIG    1      195.062 113.414 139.773  0.00  0.00    -0.009 C 
ATOM     19  C   LIG    1      195.987 113.427 140.559  0.00  0.00    -0.051 C 
ENDBRANCH  12  19
ENDBRANCH  11  14
ENDBRANCH   1  11
BRANCH   6  20
ATOM     20  O   LIG    1      195.739 119.141 144.327  0.00  0.00    -0.470 OA
BRANCH  20  21
ATOM     21  C   LIG    1      194.808 118.392 143.599  0.00  0.00    +0.237 C 
BRANCH  21  22
ATOM     22  C   LIG    1      194.626 118.951 142.204  0.00  0.00    +0.189 C 
BRANCH  22  23
ATOM     23  O   LIG    1      193.256 119.187 141.974  0.00  0.00    -0.347 OA
ATOM     24  C   LIG    1      193.054 120.284 141.153  0.00  0.00    +0.174 C 
ENDBRANCH  22  23
ENDBRANCH  21  22
ENDBRANCH  20  21
ENDBRANCH   6  20
BRANCH   5  25
ATOM     25  O   LIG    1      196.078 119.904 146.923  0.00  0.00    -0.470 OA
BRANCH  25  26
ATOM     26  C   LIG    1      195.347 119.534 148.076  0.00  0.00    +0.237 C 
BRANCH  26  27
ATOM     27  C   LIG    1      193.878 119.525 147.684  0.00  0.00    +0.189 C 
BRANCH  27  28
ATOM     28  O   LIG    1      193.597 120.446 146.698  0.00  0.00    -0.347 OA
ATOM     29  C   LIG    1      192.473 120.065 145.972  0.00  0.00    +0.174 C 
ENDBRANCH  27  28
ENDBRANCH  26  27
ENDBRANCH  25  26
ENDBRANCH   5  25
TORSDOF 11
ENDMDL
MODEL 5
REMARK VINA RESULT:      -6.5     12.355     15.757
REMARK  Name = 
REMARK                            x       y       z     vdW  Elec       q    Type
REMARK                         _______ _______ _______ _____ _____    ______ ____
ROOT
ATOM      1  C   LIG    1      165.878 157.405 160.198  0.00  0.00    +0.155 A 
ATOM      2  C   LIG    1      165.133 156.288 159.855  0.00  0.00    +0.054 A 
ATOM      3  C   LIG    1      163.861 156.402 159.333  0.00  0.00    +0.089 A 
ATOM      4  C   LIG    1      163.101 155.281 158.983  0.00  0.00    +0.059 A 
ATOM      5  C   LIG    1      163.630 154.021 159.163  0.00  0.00    +0.174 A 
ATOM      6  C   LIG    1      164.902 153.933 159.686  0.00  0.00    +0.173 A 
ATOM      7  N   LIG    1      163.346 157.632 159.157  0.00  0.00    -0.224 NA
ATOM      8  C   LIG    1      164.063 158.719 159.488  0.00  0.00    +0.200 A 
ATOM      9  C   LIG    1      165.651 155.020 160.030  0.00  0.00    +0.044 A 
ATOM     10  N   LIG    1      165.302 158.595 159.996  0.00  0.00    -0.207 NA
ENDROOT
BRANCH   1  11
ATOM     11  N   LIG    1      167.169 157.202 160.725  0.00  0.00    -0.194 NA
BRANCH  11  14
ATOM     12  C   LIG    1      167.834 158.213 164.244  0.00  0.00    +0.044 A 
ATOM     13  C   LIG    1      167.393 157.536 163.126  0.00  0.00    +0.025 A 
ATOM     14  C   LIG    1      167.656 157.952 161.838  0.00  0.00    +0.073 A 
ATOM     15  C   LIG    1      168.394 159.099 161.630  0.00  0.00    +0.017 A 
ATOM     16  C   LIG    1      168.846 159.795 162.731  0.00  0.00    +0.002 A 
ATOM     17  C   LIG    1      168.573 159.364 164.007  0.00  0.00    +0.008 A 
BRANCH  12  19
ATOM     18  C   LIG    1      167.323 157.375 166.717  0.00  0.00    -0.009 C 
ATOM     19  C   LIG    1      167.547 157.761 165.588  0.00  0.00    -0.051 C 
ENDBRANCH  12  19
ENDBRANCH  11  14
ENDBRANCH   1  11
BRANCH   6  20
ATOM     20  O   LIG    1      165.416 152.650 159.859  0.00  0.00    -0.470 OA
BRANCH  20  21
ATOM     21  C   LIG    1      165.181 151.851 160.982  0.00  0.00    +0.237 C 
BRANCH  21  22
ATOM     22  C   LIG    1      164.693 150.475 160.585  0.00  0.00    +0.189 C 
BRANCH  22  23
ATOM     23  O   LIG    1      163.338 150.341 160.947  0.00  0.00    -0.347 OA
ATOM     24  C   LIG    1      162.667 149.460 160.114  0.00  0.00    +0.174 C 
ENDBRANCH  22  23
ENDBRANCH  21  22
ENDBRANCH  20  21
ENDBRANCH   6  20
BRANCH   5  25
ATOM     25  O   LIG    1      162.902 152.863 158.825  0.00  0.00    -0.470 OA
BRANCH  25  26
ATOM     26  C   LIG    1      162.736 152.501 157.468  0.00  0.00    +0.237 C 
BRANCH  26  27
ATOM     27  C   LIG    1      163.819 151.483 157.147  0.00  0.00    +0.189 C 
BRANCH  27  28
ATOM     28  O   LIG    1      163.962 151.286 155.789  0.00  0.00    -0.347 OA
ATOM     29  C   LIG    1      163.017 152.022 155.082  0.00  0.00    +0.174 C 
ENDBRANCH  27  28
ENDBRANCH  26  27
ENDBRANCH  25  26
ENDBRANCH   5  25
TORSDOF 11
ENDMDL
MODEL 6
REMARK VINA RESULT:      -6.5     40.002     44.818
REMARK  Name = 
REMARK                            x       y       z     vdW  Elec       q    Type
REMARK                         _______ _______ _______ _____ _____    ______ ____
ROOT
ATOM      1  C   LIG    1      199.875 115.238 144.062  0.00  0.00    +0.155 A 
ATOM      2  C   LIG    1      199.355 116.226 144.882  0.00  0.00    +0.054 A 
ATOM      3  C   LIG    1      199.823 116.416 146.166  0.00  0.00    +0.089 A 
ATOM      4  C   LIG    1      199.304 117.411 147.002  0.00  0.00    +0.059 A 
ATOM      5  C   LIG    1      198.296 118.228 146.539  0.00  0.00    +0.174 A 
ATOM      6  C   LIG    1      197.846 118.018 145.254  0.00  0.00    +0.173 A 
ATOM      7  N   LIG    1      200.806 115.618 146.617  0.00  0.00    -0.224 NA
ATOM      8  C   LIG    1      201.315 114.658 145.827  0.00  0.00    +0.200 A 
ATOM      9  C   LIG    1      198.345 117.051 144.431  0.00  0.00    +0.044 A 
ATOM     10  N   LIG    1      200.851 114.482 144.577  0.00  0.00    -0.207 NA
ENDROOT
BRANCH   1  11
ATOM     11  N   LIG    1      199.342 115.108 142.763  0.00  0.00    -0.194 NA
BRANCH  11  14
ATOM     12  C   LIG    1      196.623 113.181 141.107  0.00  0.00    +0.044 A 
ATOM     13  C   LIG    1      197.470 114.196 141.503  0.00  0.00    +0.025 A 
ATOM     14  C   LIG    1      198.502 114.012 142.397  0.00  0.00    +0.073 A 
ATOM     15  C   LIG    1      198.722 112.762 142.938  0.00  0.00    +0.017 A 
ATOM     16  C   LIG    1      197.889 111.731 142.560  0.00  0.00    +0.002 A 
ATOM     17  C   LIG    1      196.865 111.933 141.666  0.00  0.00    +0.008 A 
BRANCH  12  19
ATOM     18  C   LIG    1      194.650 113.567 139.365  0.00  0.00    -0.009 C 
ATOM     19  C   LIG    1      195.544 113.393 140.168  0.00  0.00    -0.051 C 
ENDBRANCH  12  19
ENDBRANCH  11  14
ENDBRANCH   1  11
BRANCH   6  20
ATOM     20  O   LIG    1      196.827 118.856 144.807  0.00  0.00    -0.470 OA
BRANCH  20  21
ATOM     21  C   LIG    1      195.516 118.438 144.556  0.00  0.00    +0.237 C 
BRANCH  21  22
ATOM     22  C   LIG    1      194.627 118.669 145.758  0.00  0.00    +0.189 C 
BRANCH  22  23
ATOM     23  O   LIG    1      194.768 120.002 146.191  0.00  0.00    -0.347 OA
ATOM     24  C   LIG    1      193.861 120.319 147.189  0.00  0.00    +0.174 C 
ENDBRANCH  22  23
ENDBRANCH  21  22
ENDBRANCH  20  21
ENDBRANCH   6  20
BRANCH   5  25
ATOM     25  O   LIG    1      197.744 119.243 147.345  0.00  0.00    -0.470 OA
BRANCH  25  26
ATOM     26  C   LIG    1      197.153 118.917 148.589  0.00  0.00    +0.237 C 
BRANCH  26  27
ATOM     27  C   LIG    1      197.335 120.125 149.495  0.00  0.00    +0.189 C 
BRANCH  27  28
ATOM     28  O   LIG    1      198.443 120.870 149.152  0.00  0.00    -0.347 OA
ATOM     29  C   LIG    1      198.959 121.527 150.264  0.00  0.00    +0.174 C 
ENDBRANCH  27  28
ENDBRANCH  26  27
ENDBRANCH  25  26
ENDBRANCH   5  25
TORSDOF 11
ENDMDL
MODEL 7
REMARK VINA RESULT:      -6.5      2.701      3.369
REMARK  Name = 
REMARK                            x       y       z     vdW  Elec       q    Type
REMARK                         _______ _______ _______ _____ _____    ______ ____
ROOT
ATOM      1  C   LIG    1      169.798 151.344 147.316  0.00  0.00    +0.155 A 
ATOM      2  C   LIG    1      170.168 150.011 147.236  0.00  0.00    +0.054 A 
ATOM      3  C   LIG    1      170.750 149.493 146.098  0.00  0.00    +0.089 A 
ATOM      4  C   LIG    1      171.128 148.149 146.006  0.00  0.00    +0.059 A 
ATOM      5  C   LIG    1      170.915 147.311 147.079  0.00  0.00    +0.174 A 
ATOM      6  C   LIG    1      170.332 147.852 148.204  0.00  0.00    +0.173 A 
ATOM      7  N   LIG    1      170.958 150.312 145.052  0.00  0.00    -0.224 NA
ATOM      8  C   LIG    1      170.601 151.605 145.123  0.00  0.00    +0.200 A 
ATOM      9  C   LIG    1      169.960 149.161 148.303  0.00  0.00    +0.044 A 
ATOM     10  N   LIG    1      170.034 152.100 146.238  0.00  0.00    -0.207 NA
ENDROOT
BRANCH   1  11
ATOM     11  N   LIG    1      169.208 151.796 148.515  0.00  0.00    -0.194 NA
BRANCH  11  14
ATOM     12  C   LIG    1      165.794 151.259 149.894  0.00  0.00    +0.044 A 
ATOM     13  C   LIG    1      167.157 151.210 149.687  0.00  0.00    +0.025 A 
ATOM     14  C   LIG    1      167.792 151.891 148.670  0.00  0.00    +0.073 A 
ATOM     15  C   LIG    1      167.051 152.667 147.803  0.00  0.00    +0.017 A 
ATOM     16  C   LIG    1      165.686 152.732 147.987  0.00  0.00    +0.002 A 
ATOM     17  C   LIG    1      165.072 152.046 149.006  0.00  0.00    +0.008 A 
BRANCH  12  19
ATOM     18  C   LIG    1      164.612 149.916 151.863  0.00  0.00    -0.009 C 
ATOM     19  C   LIG    1      165.145 150.537 150.965  0.00  0.00    -0.051 C 
ENDBRANCH  12  19
ENDBRANCH  11  14
ENDBRANCH   1  11
BRANCH   6  20
ATOM     20  O   LIG    1      170.126 146.987 149.276  0.00  0.00    -0.470 OA
BRANCH  20  21
ATOM     21  C   LIG    1      168.982 146.201 149.447  0.00  0.00    +0.237 C 
BRANCH  21  22
ATOM     22  C   LIG    1      168.340 146.450 150.794  0.00  0.00    +0.189 C 
BRANCH  22  23
ATOM     23  O   LIG    1      167.494 147.573 150.704  0.00  0.00    -0.347 OA
ATOM     24  C   LIG    1      166.603 147.463 149.649  0.00  0.00    +0.174 C 
ENDBRANCH  22  23
ENDBRANCH  21  22
ENDBRANCH  20  21
ENDBRANCH   6  20
BRANCH   5  25
ATOM     25  O   LIG    1      171.279 145.951 147.033  0.00  0.00    -0.470 OA
BRANCH  25  26
ATOM     26  C   LIG    1      172.126 145.479 146.003  0.00  0.00    +0.237 C 
BRANCH  26  27
ATOM     27  C   LIG    1      171.474 144.229 145.433  0.00  0.00    +0.189 C 
BRANCH  27  28
ATOM     28  O   LIG    1      171.344 144.289 144.061  0.00  0.00    -0.347 OA
ATOM     29  C   LIG    1      170.248 145.067 143.703  0.00  0.00    +0.174 C 
ENDBRANCH  27  28
ENDBRANCH  26  27
ENDBRANCH  25  26
ENDBRANCH   5  25
TORSDOF 11
ENDMDL
MODEL 8
REMARK VINA RESULT:      -6.5     41.380     46.914
REMARK  Name = 
REMARK                            x       y       z     vdW  Elec       q    Type
REMARK                         _______ _______ _______ _____ _____    ______ ____
ROOT
ATOM      1  C   LIG    1      200.338 115.721 146.546  0.00  0.00    +0.155 A 
ATOM      2  C   LIG    1      199.530 116.178 145.517  0.00  0.00    +0.054 A 
ATOM      3  C   LIG    1      198.834 117.365 145.620  0.00  0.00    +0.089 A 
ATOM      4  C   LIG    1      198.017 117.834 144.586  0.00  0.00    +0.059 A 
ATOM      5  C   LIG    1      197.896 117.096 143.429  0.00  0.00    +0.174 A 
ATOM      6  C   LIG    1      198.600 115.914 143.351  0.00  0.00    +0.173 A 
ATOM      7  N   LIG    1      198.953 118.085 146.749  0.00  0.00    -0.224 NA
ATOM      8  C   LIG    1      199.735 117.648 147.750  0.00  0.00    +0.200 A 
ATOM      9  C   LIG    1      199.400 115.447 144.353  0.00  0.00    +0.044 A 
ATOM     10  N   LIG    1      200.409 116.489 147.640  0.00  0.00    -0.207 NA
ENDROOT
BRANCH   1  11
ATOM     11  N   LIG    1      201.015 114.498 146.364  0.00  0.00    -0.194 NA
BRANCH  11  14
ATOM     12  C   LIG    1      204.461 113.242 146.991  0.00  0.00    +0.044 A 
ATOM     13  C   LIG    1      203.088 113.378 146.972  0.00  0.00    +0.025 A 
ATOM     14  C   LIG    1      202.441 114.420 146.344  0.00  0.00    +0.073 A 
ATOM     15  C   LIG    1      203.178 115.389 145.696  0.00  0.00    +0.017 A 
ATOM     16  C   LIG    1      204.552 115.277 145.700  0.00  0.00    +0.002 A 
ATOM     17  C   LIG    1      205.179 114.231 146.332  0.00  0.00    +0.008 A 
BRANCH  12  19
ATOM     18  C   LIG    1      205.691 111.217 148.200  0.00  0.00    -0.009 C 
ATOM     19  C   LIG    1      205.123 112.142 147.655  0.00  0.00    -0.051 C 
ENDBRANCH  12  19
ENDBRANCH  11  14
ENDBRANCH   1  11
BRANCH   6  20
ATOM     20  O   LIG    1      198.463 115.184 142.173  0.00  0.00    -0.470 OA
BRANCH  20  21
ATOM     21  C   LIG    1      199.445 114.336 141.651  0.00  0.00    +0.237 C 
BRANCH  21  22
ATOM     22  C   LIG    1      198.945 112.911 141.555  0.00  0.00    +0.189 C 
BRANCH  22  23
ATOM     23  O   LIG    1      197.638 112.913 141.030  0.00  0.00    -0.347 OA
ATOM     24  C   LIG    1      196.804 112.048 141.721  0.00  0.00    +0.174 C 
ENDBRANCH  22  23
ENDBRANCH  21  22
ENDBRANCH  20  21
ENDBRANCH   6  20
BRANCH   5  25
ATOM     25  O   LIG    1      197.084 117.529 142.362  0.00  0.00    -0.470 OA
BRANCH  25  26
ATOM     26  C   LIG    1      196.476 118.806 142.407  0.00  0.00    +0.237 C 
BRANCH  26  27
ATOM     27  C   LIG    1      195.986 119.112 141.001  0.00  0.00    +0.189 C 
BRANCH  27  28
ATOM     28  O   LIG    1      194.896 118.344 140.651  0.00  0.00    -0.347 OA
ATOM     29  C   LIG    1      193.732 118.850 141.220  0.00  0.00    +0.174 C 
ENDBRANCH  27  28
ENDBRANCH  26  27
ENDBRANCH  25  26
ENDBRANCH   5  25
TORSDOF 11
ENDMDL
MODEL 9
REMARK VINA RESULT:      -6.4     65.487     70.567
REMARK  Name = 
REMARK                            x       y       z     vdW  Elec       q    Type
REMARK                         _______ _______ _______ _____ _____    ______ ____
ROOT
ATOM      1  C   LIG    1      189.182  85.041 158.736  0.00  0.00    +0.155 A 
ATOM      2  C   LIG    1      189.900  83.926 159.136  0.00  0.00    +0.054 A 
ATOM      3  C   LIG    1      189.928  82.775 158.376  0.00  0.00    +0.089 A 
ATOM      4  C   LIG    1      190.650  81.644 158.771  0.00  0.00    +0.059 A 
ATOM      5  C   LIG    1      191.356  81.671 159.954  0.00  0.00    +0.174 A 
ATOM      6  C   LIG    1      191.313  82.831 160.696  0.00  0.00    +0.173 A 
ATOM      7  N   LIG    1      189.238  82.751 157.222  0.00  0.00    -0.224 NA
ATOM      8  C   LIG    1      188.540  83.828 156.828  0.00  0.00    +0.200 A 
ATOM      9  C   LIG    1      190.612  83.939 160.319  0.00  0.00    +0.044 A 
ATOM     10  N   LIG    1      188.520  84.945 157.578  0.00  0.00    -0.207 NA
ENDROOT
BRANCH   1  11
ATOM     11  N   LIG    1      189.204  86.177 159.571  0.00  0.00    -0.194 NA
BRANCH  11  14
ATOM     12  C   LIG    1      189.359  89.831 158.883  0.00  0.00    +0.044 A 
ATOM     13  C   LIG    1      188.945  88.582 159.298  0.00  0.00    +0.025 A 
ATOM     14  C   LIG    1      189.694  87.439 159.115  0.00  0.00    +0.073 A 
ATOM     15  C   LIG    1      190.920  87.520 158.490  0.00  0.00    +0.017 A 
ATOM     16  C   LIG    1      191.357  88.756 158.064  0.00  0.00    +0.002 A 
ATOM     17  C   LIG    1      190.597  89.885 158.256  0.00  0.00    +0.008 A 
BRANCH  12  19
ATOM     18  C   LIG    1      187.892  92.022 159.233  0.00  0.00    -0.009 C 
ATOM     19  C   LIG    1      188.560  91.019 159.083  0.00  0.00    -0.051 C 
ENDBRANCH  12  19
ENDBRANCH  11  14
ENDBRANCH   1  11
BRANCH   6  20
ATOM     20  O   LIG    1      192.034  82.835 161.888  0.00  0.00    -0.470 OA
BRANCH  20  21
ATOM     21  C   LIG    1      193.243  83.513 162.075  0.00  0.00    +0.237 C 
BRANCH  21  22
ATOM     22  C   LIG    1      194.420  82.564 162.009  0.00  0.00    +0.189 C 
BRANCH  22  23
ATOM     23  O   LIG    1      195.610  83.308 161.886  0.00  0.00    -0.347 OA
ATOM     24  C   LIG    1      196.714  82.490 161.711  0.00  0.00    +0.174 C 
ENDBRANCH  22  23
ENDBRANCH  21  22
ENDBRANCH  20  21
ENDBRANCH   6  20
BRANCH   5  25
ATOM     25  O   LIG    1      192.098  80.556 160.392  0.00  0.00    -0.470 OA
BRANCH  25  26
ATOM     26  C   LIG    1      192.395  79.505 159.493  0.00  0.00    +0.237 C 
BRANCH  26  27
ATOM     27  C   LIG    1      193.256  78.506 160.250  0.00  0.00    +0.189 C 
BRANCH  27  28
ATOM     28  O   LIG    1      193.876  79.076 161.341  0.00  0.00    -0.347 OA
ATOM     29  C   LIG    1      195.250  78.859 161.298  0.00  0.00    +0.174 C 
ENDBRANCH  27  28
ENDBRANCH  26  27
ENDBRANCH  25  26
ENDBRANCH   5  25
TORSDOF 11
ENDMDL
