REMARK VINA RESULT:      -7.7      0.000      0.000
REMARK  Name = 
REMARK                            x       y       z     vdW  Elec       q    Type
REMARK                         _______ _______ _______ _____ _____    ______ ____
ROOT
ATOM      1  C   LIG    1      169.091 152.218 147.964  0.00  0.00    +0.155 A 
ATOM      2  C   LIG    1      169.894 151.137 147.637  0.00  0.00    +0.054 A 
ATOM      3  C   LIG    1      170.791 150.606 148.541  0.00  0.00    +0.089 A 
ATOM      4  C   LIG    1      171.606 149.515 148.220  0.00  0.00    +0.059 A 
ATOM      5  C   LIG    1      171.519 148.949 146.967  0.00  0.00    +0.174 A 
ATOM      6  C   LIG    1      170.616 149.497 146.082  0.00  0.00    +0.173 A 
ATOM      7  N   LIG    1      170.876 151.159 149.763  0.00  0.00    -0.224 NA
ATOM      8  C   LIG    1      170.100 152.207 150.087  0.00  0.00    +0.200 A 
ATOM      9  C   LIG    1      169.816 150.561 146.385  0.00  0.00    +0.044 A 
ATOM     10  N   LIG    1      169.229 152.717 149.197  0.00  0.00    -0.207 NA
ENDROOT
BRANCH   1  11
ATOM     11  N   LIG    1      168.201 152.702 146.983  0.00  0.00    -0.194 NA
BRANCH  11  14
ATOM     12  C   LIG    1      164.740 152.617 148.346  0.00  0.00    +0.044 A 
ATOM     13  C   LIG    1      166.098 152.810 148.204  0.00  0.00    +0.025 A 
ATOM     14  C   LIG    1      166.794 152.473 147.063  0.00  0.00    +0.073 A 
ATOM     15  C   LIG    1      166.122 151.914 145.996  0.00  0.00    +0.017 A 
ATOM     16  C   LIG    1      164.764 151.709 146.112  0.00  0.00    +0.002 A 
ATOM     17  C   LIG    1      164.088 152.052 147.258  0.00  0.00    +0.008 A 
BRANCH  12  19
ATOM     18  C   LIG    1      163.439 153.266 150.574  0.00  0.00    -0.009 C 
ATOM     19  C   LIG    1      164.027 152.976 149.552  0.00  0.00    -0.051 C 
ENDBRANCH  12  19
ENDBRANCH  11  14
ENDBRANCH   1  11
BRANCH   6  20
ATOM     20  O   LIG    1      170.544 148.909 144.822  0.00  0.00    -0.470 OA
BRANCH  20  21
ATOM     21  C   LIG    1      169.855 147.724 144.542  0.00  0.00    +0.237 C 
BRANCH  21  22
ATOM     22  C   LIG    1      168.368 147.887 144.769  0.00  0.00    +0.189 C 
BRANCH  22  23
ATOM     23  O   LIG    1      167.674 146.933 143.999  0.00  0.00    -0.347 OA
ATOM     24  C   LIG    1      167.207 145.885 144.776  0.00  0.00    +0.174 C 
ENDBRANCH  22  23
ENDBRANCH  21  22
ENDBRANCH  20  21
ENDBRANCH   6  20
BRANCH   5  25
ATOM     25  O   LIG    1      172.319 147.849 146.600  0.00  0.00    -0.470 OA
BRANCH  25  26
ATOM     26  C   LIG    1      171.982 146.548 147.041  0.00  0.00    +0.237 C 
BRANCH  26  27
ATOM     27  C   LIG    1      172.490 145.578 145.987  0.00  0.00    +0.189 C 
BRANCH  27  28
ATOM     28  O   LIG    1      172.002 144.303 146.175  0.00  0.00    -0.347 OA
ATOM     29  C   LIG    1      170.773 144.146 145.542  0.00  0.00    +0.174 C 
ENDBRANCH  27  28
ENDBRANCH  26  27
ENDBRANCH  25  26
ENDBRANCH   5  25
TORSDOF 11
