REMARK VINA RESULT:      -7.8      5.151      8.032
REMARK  Name = 
REMARK                            x       y       z     vdW  Elec       q    Type
REMARK                         _______ _______ _______ _____ _____    ______ ____
ROOT
ATOM      1  C   LIG    1      174.490 146.355 157.824  0.00  0.00    +0.072 C 
ATOM      2  C   LIG    1      174.888 146.332 159.366  0.00  0.00    +0.070 C 
ATOM      3  N   LIG    1      175.366 147.804 159.446  0.00  0.00    -0.269 NA
ATOM      4  C   LIG    1      176.714 147.911 159.388  0.00  0.00    +0.073 C 
ATOM      5  C   LIG    1      177.219 146.681 158.617  0.00  0.00    +0.024 C 
ATOM      6  C   LIG    1      174.714 148.647 158.535  0.00  0.00    +0.099 C 
ATOM      7  C   LIG    1      175.379 148.356 157.199  0.00  0.00    -0.013 C 
ATOM      8  C   LIG    1      176.416 145.782 159.278  0.00  0.00    +0.055 C 
ATOM      9  C   LIG    1      176.407 144.263 158.845  0.00  0.00    +0.127 C 
ATOM     10  C   LIG    1      175.721 144.345 157.417  0.00  0.00    +0.268 C 
ATOM     11  O   LIG    1      176.435 145.122 156.589  0.00  0.00    -0.209 OA
ATOM     12  N   LIG    1      175.346 143.848 159.802  0.00  0.00    -0.250 N 
ATOM     13  C   LIG    1      174.206 143.162 159.613  0.00  0.00    +0.307 C 
ATOM     14  O   LIG    1      173.375 142.837 160.479  0.00  0.00    -0.265 OA
ATOM     15  C   LIG    1      175.914 144.386 161.014  0.00  0.00    +0.053 A 
ATOM     16  C   LIG    1      175.822 143.844 162.273  0.00  0.00    +0.051 A 
ATOM     17  C   LIG    1      176.477 144.517 163.308  0.00  0.00    +0.137 A 
ATOM     18  C   LIG    1      177.179 145.663 163.088  0.00  0.00    +0.026 A 
ATOM     19  C   LIG    1      177.229 146.152 161.794  0.00  0.00    -0.003 A 
ATOM     20  C   LIG    1      176.604 145.538 160.728  0.00  0.00    -0.006 A 
ATOM     21  C   LIG    1      174.192 144.762 157.548  0.00  0.00    +0.213 C 
ATOM     22  C   LIG    1      175.186 147.071 156.922  0.00  0.00    -0.025 C 
ENDROOT
BRANCH  18  23
ATOM     23  C   LIG    1      177.809 146.339 164.245  0.00  0.00    +0.146 C 
ATOM     24  C   LIG    1      176.812 146.801 165.248  0.00  0.00    +0.068 A 
ATOM     25  C   LIG    1      177.143 147.416 166.416  0.00  0.00    -0.005 A 
ATOM     26  C   LIG    1      175.935 147.701 167.086  0.00  0.00    +0.015 A 
ATOM     27  C   LIG    1      174.897 147.243 166.295  0.00  0.00    +0.081 A 
ATOM     28  C   LIG    1      173.590 147.410 166.747  0.00  0.00    +0.019 A 
ATOM     29  C   LIG    1      173.298 148.013 167.951  0.00  0.00    +0.002 A 
ATOM     30  C   LIG    1      174.323 148.468 168.737  0.00  0.00    +0.000 A 
ATOM     31  C   LIG    1      175.607 148.299 168.285  0.00  0.00    +0.001 A 
ATOM     32  C   LIG    1      178.460 147.755 166.956  0.00  0.00    +0.045 C 
ATOM     33  C   LIG    1      178.781 149.167 167.195  0.00  0.00    +0.077 C 
ATOM     34  N   LIG    1      179.229 149.941 166.084  0.00  0.00    -0.270 NA
ATOM     35  C   LIG    1      180.653 149.915 165.829  0.00  0.00    +0.103 C 
ATOM     36  C   LIG    1      181.020 150.040 164.379  0.00  0.00    +0.141 C 
ATOM     37  C   LIG    1      180.419 148.935 163.496  0.00  0.00    +0.033 C 
ATOM     38  C   LIG    1      179.544 148.152 164.606  0.00  0.00    +0.020 C 
ATOM     39  O   LIG    1      182.422 149.864 164.316  0.00  0.00    -0.224 OA
ATOM     40  C   LIG    1      178.596 149.475 164.895  0.00  0.00    +0.072 C 
ATOM     41  N   LIG    1      175.452 146.718 165.217  0.00  0.00    -0.249 NA
ATOM     42  C   LIG    1      178.470 147.528 163.603  0.00  0.00    +0.022 C 
BRANCH  36  43
ATOM     43  C   LIG    1      180.676 151.361 163.782  0.00  0.00    +0.032 C 
ATOM     44  C   LIG    1      180.569 151.230 162.284  0.00  0.00    +0.003 C 
ENDBRANCH  36  43
BRANCH  23  45
ATOM     45  C   LIG    1      178.672 145.386 164.928  0.00  0.00    +0.325 C 
ATOM     46  O   LIG    1      179.663 144.935 164.229  0.00  0.00    -0.249 OA
BRANCH  45  47
ATOM     47  O   LIG    1      178.630 144.867 166.186  0.00  0.00    -0.444 OA
ATOM     48  C   LIG    1      179.546 143.897 166.658  0.00  0.00    +0.256 C 
ENDBRANCH  45  47
ENDBRANCH  23  45
ENDBRANCH  18  23
BRANCH   1  50
ATOM     49  C   LIG    1      172.374 146.312 158.631  0.00  0.00    +0.001 C 
ATOM     50  C   LIG    1      173.026 146.852 157.932  0.00  0.00    +0.009 C 
ENDBRANCH   1  50
BRANCH  10  51
ATOM     51  C   LIG    1      175.911 142.975 156.913  0.00  0.00    +0.350 C 
ATOM     52  O   LIG    1      177.001 142.388 156.712  0.00  0.00    -0.247 OA
BRANCH  51  53
ATOM     53  O   LIG    1      174.808 142.163 156.593  0.00  0.00    -0.443 OA
ATOM     54  C   LIG    1      174.715 141.430 155.403  0.00  0.00    +0.256 C 
ENDBRANCH  51  53
ENDBRANCH  10  51
BRANCH  17  55
ATOM     55  O   LIG    1      176.359 143.916 164.588  0.00  0.00    -0.472 OA
ATOM     56  C   LIG    1      176.571 142.542 164.786  0.00  0.00    +0.252 C 
ENDBRANCH  17  55
BRANCH  21  57
ATOM     57  O   LIG    1      173.948 145.013 156.072  0.00  0.00    -0.449 OA
BRANCH  57  58
ATOM     58  C   LIG    1      172.753 144.546 155.617  0.00  0.00    +0.318 C 
ATOM     59  O   LIG    1      171.949 143.748 156.110  0.00  0.00    -0.250 OA
ATOM     60  C   LIG    1      172.301 145.081 154.268  0.00  0.00    +0.121 C 
ENDBRANCH  57  58
ENDBRANCH  21  57
TORSDOF 10
