REMARK VINA RESULT:      -7.5      0.000      0.000
REMARK  Name = ZINC000000623204
REMARK                            x       y       z     vdW  Elec       q    Type
REMARK                         _______ _______ _______ _____ _____    ______ ____
ROOT
ATOM      1  C   LIG    1      170.022 147.355 145.402  0.00  0.00    +0.124 A 
ATOM      2  C   LIG    1      171.239 147.006 146.008  0.00  0.00    +0.067 A 
ATOM      3 CL   LIG    1      171.879 145.394 145.950  0.00  0.00    -0.082 Cl
ATOM      4  C   LIG    1      171.974 147.963 146.713  0.00  0.00    +0.023 A 
ATOM      5  C   LIG    1      171.506 149.264 146.827  0.00  0.00    +0.014 A 
ATOM      6  C   LIG    1      170.291 149.638 146.233  0.00  0.00    +0.039 A 
ATOM      7  C   LIG    1      169.564 148.668 145.529  0.00  0.00    +0.043 A 
ENDROOT
BRANCH   6   8
ATOM      8  C   LIG    1      169.769 151.001 146.341  0.00  0.00    +0.245 C 
ATOM      9  N   LIG    1      168.864 151.297 147.317  0.00  0.00    -0.305 N 
ATOM     10  H   LIG    1      168.556 150.568 147.968  0.00  0.00    +0.150 HD
ATOM     11  O   LIG    1      170.116 151.910 145.597  0.00  0.00    -0.270 OA
BRANCH   9  12
ATOM     12  C   LIG    1      168.239 152.597 147.457  0.00  0.00    +0.100 C 
ATOM     13  C   LIG    1      168.532 153.104 148.876  0.00  0.00    +0.033 C 
BRANCH  12  14
ATOM     14  C   LIG    1      166.742 152.367 147.299  0.00  0.00    -0.027 A 
ATOM     15  C   LIG    1      166.182 151.931 146.093  0.00  0.00    +0.005 A 
ATOM     16  C   LIG    1      164.807 151.742 145.981  0.00  0.00    +0.000 A 
ATOM     17  C   LIG    1      163.979 151.988 147.070  0.00  0.00    +0.000 A 
ATOM     18  C   LIG    1      164.526 152.422 148.272  0.00  0.00    +0.000 A 
ATOM     19  C   LIG    1      165.901 152.611 148.385  0.00  0.00    +0.005 A 
ENDBRANCH  12  14
ENDBRANCH   9  12
ENDBRANCH   6   8
BRANCH   1  20
ATOM     20  S   LIG    1      169.061 146.154 144.468  0.00  0.00    +0.062 S 
ATOM     21  O   LIG    1      167.933 146.818 143.911  0.00  0.00    -0.153 OA
ATOM     22  O   LIG    1      169.915 145.502 143.537  0.00  0.00    -0.153 OA
BRANCH  20  23
ATOM     23  N   LIG    1      168.530 145.048 145.592  0.00  0.00    -0.177 NA
BRANCH  23  25
ATOM     24  C   LIG    1      166.147 144.594 145.887  0.00  0.00    +0.022 C 
ATOM     25  C   LIG    1      167.373 145.319 146.461  0.00  0.00    +0.106 C 
ENDBRANCH  23  25
BRANCH  23  26
ATOM     26  C   LIG    1      168.742 143.625 145.315  0.00  0.00    +0.106 C 
ATOM     27  C   LIG    1      169.380 143.075 146.594  0.00  0.00    +0.022 C 
ENDBRANCH  23  26
ENDBRANCH  20  23
ENDBRANCH   1  20
TORSDOF 7
