REMARK VINA RESULT:      -6.2     98.980    102.558
REMARK  Name = ZINC000193546412
REMARK                            x       y       z     vdW  Elec       q    Type
REMARK                         _______ _______ _______ _____ _____    ______ ____
ROOT
ATOM      1  C   LIG    1      197.944  95.047 158.314  0.00  0.00    +0.171 A 
ATOM      2  N   LIG    1      197.639  93.834 158.875  0.00  0.00    -0.204 NA
ATOM      3  C   LIG    1      197.365  93.006 157.929  0.00  0.00    +0.185 A 
ATOM      4  S   LIG    1      197.472  93.672 156.354  0.00  0.00    +0.050 S 
ATOM      5  N   LIG    1      197.900  95.119 157.007  0.00  0.00    -0.187 NA
ENDROOT
BRANCH   1   9
ATOM      6  C   LIG    1      198.979  98.435 160.713  0.00  0.00    +0.120 A 
ATOM      7  C   LIG    1      198.869  97.177 161.304  0.00  0.00    +0.046 A 
ATOM      8  C   LIG    1      198.534  96.079 160.519  0.00  0.00    +0.015 A 
ATOM      9  C   LIG    1      198.301  96.211 159.137  0.00  0.00    +0.020 A 
ATOM     10  C   LIG    1      198.419  97.495 158.572  0.00  0.00    +0.015 A 
ATOM     11  C   LIG    1      198.755  98.596 159.351  0.00  0.00    +0.046 A 
BRANCH   6  13
ATOM     12  C   LIG    1      200.222  99.588 162.555  0.00  0.00    +0.277 C 
ATOM     13  O   LIG    1      199.308  99.559 161.435  0.00  0.00    -0.495 OA
ENDBRANCH   6  13
ENDBRANCH   1   9
BRANCH   3  14
ATOM     14  N   LIG    1      197.019  91.696 158.265  0.00  0.00    -0.259 N 
ATOM     15  H   LIG    1      196.051  91.579 158.577  0.00  0.00    +0.157 HD
ATOM     16  C   LIG    1      197.797  90.570 158.228  0.00  0.00    +0.254 C 
ATOM     17  O   LIG    1      198.959  90.686 157.869  0.00  0.00    -0.270 OA
BRANCH  16  18
ATOM     18  C   LIG    1      197.229  89.287 158.618  0.00  0.00    +0.089 A 
ATOM     19  C   LIG    1      197.093  88.126 157.903  0.00  0.00    +0.182 A 
ATOM     20 BR   LIG    1      197.560  87.627 156.143  0.00  0.00    -0.008 Br
ATOM     21  O   LIG    1      196.504  87.185 158.669  0.00  0.00    -0.456 OA
ATOM     22  C   LIG    1      196.257  87.734 159.883  0.00  0.00    +0.197 A 
ATOM     23  C   LIG    1      196.686  89.013 159.889  0.00  0.00    +0.055 A 
ENDBRANCH  16  18
ENDBRANCH   3  14
TORSDOF 4
