REMARK VINA RESULT:      -7.0     44.521     46.347
REMARK  Name = ZINC000006087320
REMARK                            x       y       z     vdW  Elec       q    Type
REMARK                         _______ _______ _______ _____ _____    ______ ____
ROOT
ATOM      1  C   LIG    1      195.822 133.040 141.890  0.00  0.00    +0.222 C 
ENDROOT
BRANCH   1   2
ATOM      2  N   LIG    1      195.683 131.782 141.118  0.00  0.00    -0.290 N 
ATOM      3  C   LIG    1      196.079 130.574 141.663  0.00  0.00    +0.262 A 
ATOM      4  O   LIG    1      196.560 130.593 142.799  0.00  0.00    -0.267 OA
ATOM      5  C   LIG    1      195.919 129.379 140.862  0.00  0.00    +0.068 A 
ATOM      6  C   LIG    1      196.268 128.109 141.348  0.00  0.00    +0.035 A 
ATOM      7  C   LIG    1      196.101 126.988 140.542  0.00  0.00    +0.043 A 
ATOM      8 CL   LIG    1      196.534 125.425 141.143  0.00  0.00    -0.083 Cl
ATOM      9  C   LIG    1      195.588 127.116 139.249  0.00  0.00    +0.042 A 
ATOM     10  C   LIG    1      195.242 128.371 138.764  0.00  0.00    +0.068 A 
ATOM     11 CL   LIG    1      194.607 128.493 137.152  0.00  0.00    -0.081 Cl
ATOM     12  C   LIG    1      195.405 129.522 139.567  0.00  0.00    +0.096 A 
ATOM     13  N   LIG    1      195.068 130.805 139.095  0.00  0.00    -0.235 NA
ATOM     14  C   LIG    1      195.207 131.849 139.820  0.00  0.00    +0.203 A 
ENDBRANCH   1   2
BRANCH   1  17
ATOM     15  N   LIG    1      194.173 134.871 141.934  0.00  0.00    -0.284 N 
ATOM     16  H   LIG    1      194.976 135.386 141.531  0.00  0.00    +0.155 HD
ATOM     17  C   LIG    1      194.423 133.547 142.200  0.00  0.00    +0.237 C 
ATOM     18  O   LIG    1      193.570 132.808 142.643  0.00  0.00    -0.274 OA
BRANCH  15  20
ATOM     19  C   LIG    1      192.266 136.057 141.030  0.00  0.00    -0.026 A 
ATOM     20  C   LIG    1      193.000 135.639 142.155  0.00  0.00    +0.037 A 
ATOM     21  C   LIG    1      192.564 135.953 143.447  0.00  0.00    +0.023 A 
ATOM     22  C   LIG    1      191.410 136.706 143.621  0.00  0.00    +0.002 A 
ATOM     23  C   LIG    1      190.686 137.140 142.515  0.00  0.00    +0.000 A 
ATOM     24  C   LIG    1      191.113 136.814 141.230  0.00  0.00    +0.005 A 
BRANCH  19  26
ATOM     25  C   LIG    1      191.834 134.529 139.160  0.00  0.00    +0.009 C 
ATOM     26  C   LIG    1      192.684 135.728 139.602  0.00  0.00    +0.033 C 
ENDBRANCH  19  26
ENDBRANCH  15  20
ENDBRANCH   1  17
TORSDOF 4
