REMARK VINA RESULT:     -11.8      0.000      0.000
REMARK  Name = 
REMARK                            x       y       z     vdW  Elec       q    Type
REMARK                         _______ _______ _______ _____ _____    ______ ____
ROOT
ATOM      1  C   LIG    1      164.502 118.260 183.637  0.00  0.00    +0.046 C 
ATOM      2  C   LIG    1      164.490 117.432 183.597  0.00  0.00    +0.024 C 
ATOM      3  C   LIG    1      163.232 117.442 183.062  0.00  0.00    +0.072 C 
ATOM      4  N   LIG    1      163.186 118.291 183.078  0.00  0.00    -0.274 NA
ATOM      5  C   LIG    1      162.532 118.721 182.819  0.00  0.00    +0.098 C 
ATOM      6  C   LIG    1      162.547 119.545 182.860  0.00  0.00    -0.013 C 
ATOM      7  C   LIG    1      163.208 119.936 183.158  0.00  0.00    -0.025 C 
ATOM      8  C   LIG    1      163.855 119.506 183.415  0.00  0.00    +0.067 C 
ATOM      9  C   LIG    1      164.524 119.905 183.716  0.00  0.00    +0.212 C 
ATOM     10  C   LIG    1      165.175 119.475 183.975  0.00  0.00    +0.263 C 
ATOM     11  O   LIG    1      165.182 120.295 184.013  0.00  0.00    -0.209 OA
ATOM     12  C   LIG    1      163.851 118.685 183.378  0.00  0.00    +0.087 C 
ATOM     13  C   LIG    1      165.171 118.654 183.938  0.00  0.00    +0.145 C 
ATOM     14  N   LIG    1      165.824 118.225 184.198  0.00  0.00    -0.255 N 
ATOM     15  C   LIG    1      166.486 118.616 184.496  0.00  0.00    +0.307 C 
ATOM     16  O   LIG    1      167.140 118.178 184.756  0.00  0.00    -0.265 OA
ATOM     17  C   LIG    1      165.809 117.401 184.157  0.00  0.00    +0.053 A 
ATOM     18  C   LIG    1      166.467 117.008 184.420  0.00  0.00    +0.051 A 
ATOM     19  C   LIG    1      166.478 116.180 184.390  0.00  0.00    +0.137 A 
ATOM     20  C   LIG    1      165.832 115.769 184.098  0.00  0.00    +0.026 A 
ATOM     21  C   LIG    1      165.167 116.173 183.832  0.00  0.00    -0.003 A 
ATOM     22  C   LIG    1      165.148 117.006 183.859  0.00  0.00    -0.007 A 
ENDROOT
BRANCH  20  23
ATOM     23  C   LIG    1      165.868 113.702 184.026  0.00  0.00    +0.146 C 
ATOM     24  C   LIG    1      166.124 113.752 183.237  0.00  0.00    +0.022 C 
ATOM     25  C   LIG    1      166.202 114.532 182.985  0.00  0.00    +0.020 C 
ATOM     26  C   LIG    1      166.442 114.806 182.240  0.00  0.00    +0.033 C 
ATOM     27  C   LIG    1      166.660 114.378 181.576  0.00  0.00    +0.141 C 
ATOM     28  O   LIG    1      166.983 114.414 180.584  0.00  0.00    -0.224 OA
ATOM     29  C   LIG    1      166.695 113.560 181.484  0.00  0.00    +0.103 C 
ATOM     30  N   LIG    1      166.519 112.970 182.038  0.00  0.00    -0.270 NA
ATOM     31  C   LIG    1      166.266 113.053 182.814  0.00  0.00    +0.077 C 
ATOM     32  C   LIG    1      166.155 112.316 183.171  0.00  0.00    +0.045 C 
ATOM     33  C   LIG    1      165.901 112.273 183.954  0.00  0.00    -0.005 A 
ATOM     34  C   LIG    1      165.537 111.489 185.087  0.00  0.00    +0.015 A 
ATOM     35  C   LIG    1      165.394 112.179 185.516  0.00  0.00    +0.081 A 
ATOM     36  C   LIG    1      165.139 112.143 186.298  0.00  0.00    +0.019 A 
ATOM     37  C   LIG    1      165.028 111.405 186.655  0.00  0.00    +0.002 A 
ATOM     38  C   LIG    1      165.172 110.715 186.226  0.00  0.00    +0.000 A 
ATOM     39  N   LIG    1      165.504 112.921 185.161  0.00  0.00    -0.249 NA
ATOM     40  C   LIG    1      165.425 110.755 185.446  0.00  0.00    +0.001 A 
ATOM     41  C   LIG    1      166.471 113.933 182.166  0.00  0.00    +0.072 C 
ATOM     42  C   LIG    1      165.757 112.963 184.383  0.00  0.00    +0.068 A 
BRANCH  23  43
ATOM     43  C   LIG    1      165.539 114.230 185.028  0.00  0.00    +0.325 C 
ATOM     44  O   LIG    1      166.093 114.379 185.612  0.00  0.00    -0.249 OA
BRANCH  43  45
ATOM     45  O   LIG    1      164.755 114.447 185.138  0.00  0.00    -0.444 OA
ATOM     46  C   LIG    1      164.475 114.600 185.893  0.00  0.00    +0.256 C 
ENDBRANCH  43  45
ENDBRANCH  23  43
BRANCH  27  47
ATOM     47  C   LIG    1      166.709 115.182 181.412  0.00  0.00    +0.032 C 
ATOM     48  C   LIG    1      166.925 115.631 180.755  0.00  0.00    +0.003 C 
ENDBRANCH  27  47
ENDBRANCH  20  23
BRANCH  10  49
ATOM     49  C   LIG    1      166.197 120.068 184.435  0.00  0.00    +0.350 C 
ATOM     50  O   LIG    1      166.814 120.223 184.029  0.00  0.00    -0.247 OA
BRANCH  49  51
ATOM     51  O   LIG    1      166.198 120.307 185.234  0.00  0.00    -0.443 OA
ATOM     52  C   LIG    1      166.840 120.634 185.507  0.00  0.00    +0.256 C 
ENDBRANCH  49  51
ENDBRANCH  10  49
BRANCH   8  53
ATOM     53  C   LIG    1      163.867 120.326 183.454  0.00  0.00    +0.009 C 
ATOM     54  C   LIG    1      163.170 120.731 183.638  0.00  0.00    +0.000 C 
ENDBRANCH   8  53
BRANCH  19  55
ATOM     55  O   LIG    1      167.151 115.734 184.658  0.00  0.00    -0.472 OA
ATOM     56  C   LIG    1      167.916 116.193 185.031  0.00  0.00    +0.252 C 
ENDBRANCH  19  55
BRANCH   9  57
ATOM     57  O   LIG    1      164.531 120.724 183.754  0.00  0.00    -0.449 OA
BRANCH  57  58
ATOM     58  C   LIG    1      164.770 121.087 183.236  0.00  0.00    +0.318 C 
ATOM     59  C   LIG    1      164.774 121.761 183.266  0.00  0.00    +0.121 C 
ATOM     60  O   LIG    1      165.004 120.769 182.688  0.00  0.00    -0.250 OA
ENDBRANCH  57  58
ENDBRANCH   9  57
TORSDOF 10
