REMARK VINA RESULT:      -7.6      6.321      9.607
REMARK  Name = 
REMARK                            x       y       z     vdW  Elec       q    Type
REMARK                         _______ _______ _______ _____ _____    ______ ____
ROOT
ATOM      1  C   LIG    1      175.191 147.102 158.665  0.00  0.00    +0.072 C 
ATOM      2  C   LIG    1      175.546 147.229 160.212  0.00  0.00    +0.070 C 
ATOM      3  N   LIG    1      175.607 148.778 160.252  0.00  0.00    -0.269 NA
ATOM      4  C   LIG    1      176.877 149.243 160.208  0.00  0.00    +0.073 C 
ATOM      5  C   LIG    1      177.712 148.174 159.485  0.00  0.00    +0.024 C 
ATOM      6  C   LIG    1      174.773 149.389 159.305  0.00  0.00    +0.099 C 
ATOM      7  C   LIG    1      175.520 149.251 157.988  0.00  0.00    -0.013 C 
ATOM      8  C   LIG    1      177.166 147.110 160.163  0.00  0.00    +0.055 C 
ATOM      9  C   LIG    1      177.576 145.634 159.780  0.00  0.00    +0.127 C 
ATOM     10  C   LIG    1      176.926 145.489 158.341  0.00  0.00    +0.268 C 
ATOM     11  O   LIG    1      177.422 146.406 157.498  0.00  0.00    -0.209 OA
ATOM     12  N   LIG    1      176.646 144.974 160.734  0.00  0.00    -0.250 N 
ATOM     13  C   LIG    1      175.737 144.001 160.553  0.00  0.00    +0.307 C 
ATOM     14  O   LIG    1      175.005 143.488 161.417  0.00  0.00    -0.265 OA
ATOM     15  C   LIG    1      177.021 145.679 161.937  0.00  0.00    +0.053 A 
ATOM     16  C   LIG    1      177.050 145.167 163.211  0.00  0.00    +0.051 A 
ATOM     17  C   LIG    1      177.477 146.019 164.233  0.00  0.00    +0.137 A 
ATOM     18  C   LIG    1      177.849 147.306 163.985  0.00  0.00    +0.026 A 
ATOM     19  C   LIG    1      177.794 147.755 162.677  0.00  0.00    -0.003 A 
ATOM     20  C   LIG    1      177.381 146.966 161.623  0.00  0.00    -0.006 A 
ATOM     21  C   LIG    1      175.338 145.480 158.437  0.00  0.00    +0.213 C 
ATOM     22  C   LIG    1      175.687 147.954 157.750  0.00  0.00    -0.025 C 
ENDROOT
BRANCH  18  23
ATOM     23  C   LIG    1      178.248 148.159 165.129  0.00  0.00    +0.146 C 
ATOM     24  C   LIG    1      177.103 148.491 166.019  0.00  0.00    +0.068 A 
ATOM     25  C   LIG    1      177.220 149.230 167.157  0.00  0.00    -0.005 A 
ATOM     26  C   LIG    1      175.928 149.328 167.714  0.00  0.00    +0.015 A 
ATOM     27  C   LIG    1      175.059 148.638 166.889  0.00  0.00    +0.081 A 
ATOM     28  C   LIG    1      173.710 148.589 167.232  0.00  0.00    +0.019 A 
ATOM     29  C   LIG    1      173.214 149.202 168.362  0.00  0.00    +0.002 A 
ATOM     30  C   LIG    1      174.071 149.887 169.182  0.00  0.00    +0.000 A 
ATOM     31  C   LIG    1      175.399 149.930 168.837  0.00  0.00    +0.001 A 
ATOM     32  C   LIG    1      178.404 149.839 167.761  0.00  0.00    +0.045 C 
ATOM     33  C   LIG    1      178.446 151.298 167.912  0.00  0.00    +0.077 C 
ATOM     34  N   LIG    1      178.840 152.070 166.779  0.00  0.00    -0.270 NA
ATOM     35  C   LIG    1      180.263 152.291 166.629  0.00  0.00    +0.103 C 
ATOM     36  C   LIG    1      180.722 152.389 165.204  0.00  0.00    +0.141 C 
ATOM     37  C   LIG    1      180.405 151.139 164.369  0.00  0.00    +0.033 C 
ATOM     38  C   LIG    1      179.594 150.280 165.471  0.00  0.00    +0.020 C 
ATOM     39  O   LIG    1      182.134 152.471 165.256  0.00  0.00    -0.224 OA
ATOM     40  C   LIG    1      178.404 151.420 165.588  0.00  0.00    +0.072 C 
ATOM     41  N   LIG    1      175.788 148.157 165.898  0.00  0.00    -0.249 NA
ATOM     42  C   LIG    1      178.738 149.406 164.445  0.00  0.00    +0.022 C 
BRANCH  36  43
ATOM     43  C   LIG    1      180.198 153.583 164.483  0.00  0.00    +0.032 C 
ATOM     44  C   LIG    1      180.278 153.355 162.996  0.00  0.00    +0.003 C 
ENDBRANCH  36  43
BRANCH  23  45
ATOM     45  C   LIG    1      179.207 147.426 165.944  0.00  0.00    +0.325 C 
ATOM     46  O   LIG    1      180.342 147.176 165.375  0.00  0.00    -0.249 OA
BRANCH  45  47
ATOM     47  O   LIG    1      179.132 146.942 167.214  0.00  0.00    -0.444 OA
ATOM     48  C   LIG    1      180.255 146.470 167.933  0.00  0.00    +0.256 C 
ENDBRANCH  45  47
ENDBRANCH  23  45
ENDBRANCH  18  23
BRANCH   1  50
ATOM     49  C   LIG    1      173.148 146.525 159.456  0.00  0.00    +0.001 C 
ATOM     50  C   LIG    1      173.644 147.188 158.737  0.00  0.00    +0.009 C 
ENDBRANCH   1  50
BRANCH  10  51
ATOM     51  C   LIG    1      177.489 144.207 157.883  0.00  0.00    +0.350 C 
ATOM     52  O   LIG    1      176.855 143.211 157.462  0.00  0.00    -0.247 OA
BRANCH  51  53
ATOM     53  O   LIG    1      178.878 143.987 157.887  0.00  0.00    -0.443 OA
ATOM     54  C   LIG    1      179.454 142.720 157.719  0.00  0.00    +0.256 C 
ENDBRANCH  51  53
ENDBRANCH  10  51
BRANCH  17  55
ATOM     55  O   LIG    1      177.497 145.445 165.529  0.00  0.00    -0.472 OA
ATOM     56  C   LIG    1      177.684 144.067 165.728  0.00  0.00    +0.252 C 
ENDBRANCH  17  55
BRANCH  21  57
ATOM     57  O   LIG    1      175.068 145.616 156.950  0.00  0.00    -0.449 OA
BRANCH  57  58
ATOM     58  C   LIG    1      174.070 144.814 156.490  0.00  0.00    +0.318 C 
ATOM     59  O   LIG    1      173.650 143.723 156.889  0.00  0.00    -0.250 OA
ATOM     60  C   LIG    1      173.319 145.323 155.270  0.00  0.00    +0.121 C 
ENDBRANCH  57  58
ENDBRANCH  21  57
TORSDOF 10
