REMARK VINA RESULT:      -6.4      1.739      2.694
REMARK  Name = ZINC000022625070
REMARK                            x       y       z     vdW  Elec       q    Type
REMARK                         _______ _______ _______ _____ _____    ______ ____
ROOT
ATOM      1  C   LIG    1      200.865 113.067 145.521  0.00  0.00    +0.171 A 
ATOM      2  C   LIG    1      202.189 113.509 145.544  0.00  0.00    +0.032 A 
ATOM      3  C   LIG    1      202.980 114.472 144.676  0.00  0.00    +0.046 C 
ATOM      4  C   LIG    1      204.083 115.125 145.555  0.00  0.00    +0.040 C 
ATOM      5  C   LIG    1      204.853 114.076 146.371  0.00  0.00    -0.036 A 
ATOM      6  C   LIG    1      204.173 112.966 146.901  0.00  0.00    +0.027 A 
ATOM      7  C   LIG    1      204.846 112.056 147.719  0.00  0.00    +0.057 A 
ATOM      8  C   LIG    1      206.201 112.249 147.985  0.00  0.00    +0.121 A 
ATOM      9  C   LIG    1      206.886 113.336 147.449  0.00  0.00    +0.046 A 
ATOM     10  C   LIG    1      206.208 114.251 146.647  0.00  0.00    +0.008 A 
ATOM     11  C   LIG    1      202.787 112.826 146.529  0.00  0.00    +0.171 A 
ATOM     12  O   LIG    1      201.874 112.012 147.074  0.00  0.00    -0.354 OA
ATOM     13  N   LIG    1      200.704 112.162 146.460  0.00  0.00    -0.073 NA
ENDROOT
BRANCH   1  16
ATOM     14  N   LIG    1      199.355 112.619 143.669  0.00  0.00    -0.307 N 
ATOM     15  H   LIG    1      199.847 111.718 143.632  0.00  0.00    +0.149 HD
ATOM     16  C   LIG    1      199.806 113.508 144.607  0.00  0.00    +0.266 C 
ATOM     17  O   LIG    1      199.298 114.628 144.619  0.00  0.00    -0.268 OA
BRANCH  14  18
ATOM     18  C   LIG    1      198.482 112.976 142.568  0.00  0.00    +0.070 C 
ATOM     19  C   LIG    1      197.532 111.794 142.374  0.00  0.00    +0.028 C 
BRANCH  18  20
ATOM     20  C   LIG    1      199.360 113.268 141.337  0.00  0.00    +0.023 C 
BRANCH  20  21
ATOM     21  C   LIG    1      199.680 114.756 141.073  0.00  0.00    +0.017 C 
BRANCH  21  22
ATOM     22  C   LIG    1      201.185 114.943 141.384  0.00  0.00    +0.084 C 
BRANCH  22  23
ATOM     23  N   LIG    1      201.423 116.295 141.953  0.00  0.00    -0.303 NA
BRANCH  23  25
ATOM     24  C   LIG    1      203.696 116.986 142.013  0.00  0.00    +0.020 C 
ATOM     25  C   LIG    1      202.412 117.087 141.186  0.00  0.00    +0.081 C 
ENDBRANCH  23  25
BRANCH  23  26
ATOM     26  C   LIG    1      200.182 117.035 142.251  0.00  0.00    +0.081 C 
ATOM     27  C   LIG    1      200.469 117.799 143.550  0.00  0.00    +0.020 C 
ENDBRANCH  23  26
ENDBRANCH  22  23
ENDBRANCH  21  22
ENDBRANCH  20  21
ENDBRANCH  18  20
ENDBRANCH  14  18
ENDBRANCH   1  16
BRANCH   8  28
ATOM     28  O   LIG    1      206.920 111.384 148.778  0.00  0.00    -0.495 OA
ATOM     29  C   LIG    1      207.964 110.500 148.310  0.00  0.00    +0.277 C 
ENDBRANCH   8  28
TORSDOF 9
