REMARK VINA RESULT:      -6.4     66.524     67.878
REMARK  Name = ZINC000193545175
REMARK                            x       y       z     vdW  Elec       q    Type
REMARK                         _______ _______ _______ _____ _____    ______ ____
ROOT
ATOM      1  C   LIG    1      193.077 101.166 188.456  0.00  0.00    +0.171 A 
ATOM      2  N   LIG    1      191.769 101.571 188.497  0.00  0.00    -0.204 NA
ATOM      3  C   LIG    1      191.258 101.179 189.611  0.00  0.00    +0.185 A 
ATOM      4  S   LIG    1      192.343 100.321 190.623  0.00  0.00    +0.050 S 
ATOM      5  N   LIG    1      193.523 100.504 189.493  0.00  0.00    -0.187 NA
ENDROOT
BRANCH   1   8
ATOM      6  C   LIG    1      195.396 100.722 185.508  0.00  0.00    +0.121 A 
ATOM      7  C   LIG    1      194.583 100.431 186.601  0.00  0.00    +0.057 A 
ATOM      8  C   LIG    1      193.938 101.462 187.302  0.00  0.00    +0.023 A 
ATOM      9  C   LIG    1      194.141 102.785 186.865  0.00  0.00    +0.012 A 
ATOM     10  C   LIG    1      194.955 103.066 185.771  0.00  0.00    +0.004 A 
ATOM     11  C   LIG    1      195.586 102.033 185.087  0.00  0.00    +0.045 A 
BRANCH   6  13
ATOM     12  C   LIG    1      195.763  99.381 183.424  0.00  0.00    +0.277 C 
ATOM     13  O   LIG    1      196.043  99.737 184.797  0.00  0.00    -0.495 OA
ENDBRANCH   6  13
ENDBRANCH   1   8
BRANCH   3  14
ATOM     14  N   LIG    1      189.922 101.482 189.875  0.00  0.00    -0.259 N 
ATOM     15  H   LIG    1      189.758 102.441 190.192  0.00  0.00    +0.157 HD
ATOM     16  C   LIG    1      188.822 100.676 189.752  0.00  0.00    +0.254 C 
ATOM     17  O   LIG    1      188.992  99.533 189.354  0.00  0.00    -0.270 OA
BRANCH  16  18
ATOM     18  C   LIG    1      187.505 101.198 190.082  0.00  0.00    +0.089 A 
ATOM     19  C   LIG    1      186.369 101.275 189.321  0.00  0.00    +0.182 A 
ATOM     20 BR   LIG    1      185.961 100.774 187.545  0.00  0.00    -0.008 Br
ATOM     21  O   LIG    1      185.374 101.836 190.041  0.00  0.00    -0.456 OA
ATOM     22  C   LIG    1      185.865 102.126 191.269  0.00  0.00    +0.197 A 
ATOM     23  C   LIG    1      187.160 101.752 191.330  0.00  0.00    +0.055 A 
ENDBRANCH  16  18
ENDBRANCH   3  14
TORSDOF 4
