MODEL 1
REMARK VINA RESULT:      -7.9      0.000      0.000
REMARK  Name = ZINC000049483826
REMARK                            x       y       z     vdW  Elec       q    Type
REMARK                         _______ _______ _______ _____ _____    ______ ____
ROOT
ATOM      1  N   LIG    1      170.484 147.514 145.725  0.00  0.00    -0.175 NA
ATOM      2  C   LIG    1      169.757 148.613 145.080  0.00  0.00    +0.123 C 
ATOM      3  C   LIG    1      170.940 149.519 145.506  0.00  0.00    +0.109 C 
ATOM      4  C   LIG    1      171.330 148.411 146.518  0.00  0.00    +0.123 C 
ENDROOT
BRANCH   3   5
ATOM      5  C   LIG    1      170.487 150.791 146.180  0.00  0.00    +0.233 A 
ATOM      6  O   LIG    1      171.193 151.890 146.024  0.00  0.00    -0.337 OA
ATOM      7  N   LIG    1      170.604 152.853 146.699  0.00  0.00    -0.056 NA
ATOM      8  C   LIG    1      169.565 152.309 147.236  0.00  0.00    +0.209 A 
ATOM      9  N   LIG    1      169.472 150.992 146.917  0.00  0.00    -0.191 NA
BRANCH   8  10
ATOM     10  C   LIG    1      168.613 153.019 148.080  0.00  0.00    +0.060 A 
ATOM     11  S   LIG    1      168.977 153.428 149.730  0.00  0.00    -0.093 S 
ATOM     12  C   LIG    1      167.435 154.177 149.933  0.00  0.00    +0.046 A 
ATOM     13  C   LIG    1      166.687 154.113 148.792  0.00  0.00    +0.008 A 
ATOM     14  C   LIG    1      167.352 153.458 147.745  0.00  0.00    +0.019 A 
ENDBRANCH   8  10
ENDBRANCH   3   5
BRANCH   1  15
ATOM     15  S   LIG    1      171.082 146.241 144.876  0.00  0.00    +0.061 S 
ATOM     16  O   LIG    1      170.871 146.470 143.490  0.00  0.00    -0.153 OA
ATOM     17  O   LIG    1      172.430 146.041 145.284  0.00  0.00    -0.153 OA
BRANCH  15  20
ATOM     18  C   LIG    1      170.759 145.135 147.866  0.00  0.00    +0.046 C 
ATOM     19  C   LIG    1      170.013 144.405 146.760  0.00  0.00    -0.024 A 
ATOM     20  C   LIG    1      170.091 144.817 145.414  0.00  0.00    +0.110 A 
ATOM     21  C   LIG    1      169.373 144.104 144.448  0.00  0.00    +0.048 A 
ATOM     22  C   LIG    1      168.599 143.003 144.804  0.00  0.00    +0.043 A 
ATOM     23 CL   LIG    1      167.727 142.132 143.589  0.00  0.00    -0.083 Cl
ATOM     24  C   LIG    1      168.526 142.600 146.134  0.00  0.00    +0.020 A 
ATOM     25  C   LIG    1      169.230 143.301 147.104  0.00  0.00    +0.007 A 
ENDBRANCH  15  20
ENDBRANCH   1  15
TORSDOF 4
ENDMDL
MODEL 2
REMARK VINA RESULT:      -7.6      2.159      2.589
REMARK  Name = ZINC000049483826
REMARK                            x       y       z     vdW  Elec       q    Type
REMARK                         _______ _______ _______ _____ _____    ______ ____
ROOT
ATOM      1  N   LIG    1      169.943 148.430 146.335  0.00  0.00    -0.175 NA
ATOM      2  C   LIG    1      169.268 149.490 145.579  0.00  0.00    +0.123 C 
ATOM      3  C   LIG    1      169.932 150.485 146.564  0.00  0.00    +0.109 C 
ATOM      4  C   LIG    1      170.171 149.280 147.509  0.00  0.00    +0.123 C 
ENDROOT
BRANCH   3   5
ATOM      5  C   LIG    1      168.954 151.487 147.129  0.00  0.00    +0.233 A 
ATOM      6  O   LIG    1      169.167 152.772 146.943  0.00  0.00    -0.337 OA
ATOM      7  N   LIG    1      168.190 153.435 147.522  0.00  0.00    -0.056 NA
ATOM      8  C   LIG    1      167.422 152.534 148.035  0.00  0.00    +0.209 A 
ATOM      9  N   LIG    1      167.892 151.283 147.795  0.00  0.00    -0.191 NA
BRANCH   8  10
ATOM     10  C   LIG    1      166.203 152.825 148.778  0.00  0.00    +0.060 A 
ATOM     11  S   LIG    1      166.216 153.810 150.211  0.00  0.00    -0.093 S 
ATOM     12  C   LIG    1      164.510 153.635 150.403  0.00  0.00    +0.046 A 
ATOM     13  C   LIG    1      163.966 152.862 149.416  0.00  0.00    +0.008 A 
ATOM     14  C   LIG    1      164.923 152.403 148.499  0.00  0.00    +0.019 A 
ENDBRANCH   8  10
ENDBRANCH   3   5
BRANCH   1  15
ATOM     15  S   LIG    1      171.117 147.491 145.673  0.00  0.00    +0.061 S 
ATOM     16  O   LIG    1      171.174 147.741 144.275  0.00  0.00    -0.153 OA
ATOM     17  O   LIG    1      172.318 147.715 146.403  0.00  0.00    -0.153 OA
BRANCH  15  20
ATOM     18  C   LIG    1      168.438 146.118 144.575  0.00  0.00    +0.046 C 
ATOM     19  C   LIG    1      169.364 145.271 145.435  0.00  0.00    -0.024 A 
ATOM     20  C   LIG    1      170.566 145.785 145.962  0.00  0.00    +0.110 A 
ATOM     21  C   LIG    1      171.373 144.949 146.740  0.00  0.00    +0.048 A 
ATOM     22  C   LIG    1      170.998 143.632 146.996  0.00  0.00    +0.043 A 
ATOM     23 CL   LIG    1      172.011 142.620 147.968  0.00  0.00    -0.083 Cl
ATOM     24  C   LIG    1      169.810 143.130 146.473  0.00  0.00    +0.020 A 
ATOM     25  C   LIG    1      169.001 143.948 145.697  0.00  0.00    +0.007 A 
ENDBRANCH  15  20
ENDBRANCH   1  15
TORSDOF 4
ENDMDL
MODEL 3
REMARK VINA RESULT:      -7.6      2.099      2.602
REMARK  Name = ZINC000049483826
REMARK                            x       y       z     vdW  Elec       q    Type
REMARK                         _______ _______ _______ _____ _____    ______ ____
ROOT
ATOM      1  N   LIG    1      169.588 148.612 145.867  0.00  0.00    -0.175 NA
ATOM      2  C   LIG    1      169.159 149.895 145.302  0.00  0.00    +0.123 C 
ATOM      3  C   LIG    1      169.718 150.544 146.593  0.00  0.00    +0.109 C 
ATOM      4  C   LIG    1      169.673 149.133 147.235  0.00  0.00    +0.123 C 
ENDROOT
BRANCH   3   5
ATOM      5  C   LIG    1      168.746 151.507 147.231  0.00  0.00    +0.233 A 
ATOM      6  O   LIG    1      168.716 152.757 146.823  0.00  0.00    -0.337 OA
ATOM      7  N   LIG    1      167.799 153.392 147.520  0.00  0.00    -0.056 NA
ATOM      8  C   LIG    1      167.306 152.509 148.321  0.00  0.00    +0.209 A 
ATOM      9  N   LIG    1      167.896 151.298 148.152  0.00  0.00    -0.191 NA
BRANCH   8  10
ATOM     10  C   LIG    1      166.247 152.779 149.285  0.00  0.00    +0.060 A 
ATOM     11  S   LIG    1      166.269 154.192 150.299  0.00  0.00    -0.093 S 
ATOM     12  C   LIG    1      164.782 153.736 151.045  0.00  0.00    +0.046 A 
ATOM     13  C   LIG    1      164.300 152.563 150.538  0.00  0.00    +0.008 A 
ATOM     14  C   LIG    1      165.128 152.021 149.544  0.00  0.00    +0.019 A 
ENDBRANCH   8  10
ENDBRANCH   3   5
BRANCH   1  15
ATOM     15  S   LIG    1      170.775 147.705 145.182  0.00  0.00    +0.061 S 
ATOM     16  O   LIG    1      171.177 148.316 143.964  0.00  0.00    -0.153 OA
ATOM     17  O   LIG    1      171.793 147.513 146.158  0.00  0.00    -0.153 OA
BRANCH  15  20
ATOM     18  C   LIG    1      171.728 145.524 143.038  0.00  0.00    +0.046 C 
ATOM     19  C   LIG    1      170.488 145.210 143.860  0.00  0.00    -0.024 A 
ATOM     20  C   LIG    1      169.992 146.105 144.829  0.00  0.00    +0.110 A 
ATOM     21  C   LIG    1      168.850 145.749 145.555  0.00  0.00    +0.048 A 
ATOM     22  C   LIG    1      168.208 144.536 145.324  0.00  0.00    +0.043 A 
ATOM     23 CL   LIG    1      166.792 144.123 146.229  0.00  0.00    -0.083 Cl
ATOM     24  C   LIG    1      168.701 143.655 144.366  0.00  0.00    +0.020 A 
ATOM     25  C   LIG    1      169.836 143.994 143.641  0.00  0.00    +0.007 A 
ENDBRANCH  15  20
ENDBRANCH   1  15
TORSDOF 4
ENDMDL
MODEL 4
REMARK VINA RESULT:      -7.4      3.347      8.601
REMARK  Name = ZINC000049483826
REMARK                            x       y       z     vdW  Elec       q    Type
REMARK                         _______ _______ _______ _____ _____    ______ ____
ROOT
ATOM      1  N   LIG    1      168.386 151.380 148.408  0.00  0.00    -0.175 NA
ATOM      2  C   LIG    1      169.696 150.864 148.819  0.00  0.00    +0.123 C 
ATOM      3  C   LIG    1      170.015 150.738 147.308  0.00  0.00    +0.109 C 
ATOM      4  C   LIG    1      168.488 150.833 147.051  0.00  0.00    +0.123 C 
ENDROOT
BRANCH   3   5
ATOM      5  C   LIG    1      170.586 149.389 146.943  0.00  0.00    +0.233 A 
ATOM      6  O   LIG    1      171.421 149.296 145.931  0.00  0.00    -0.337 OA
ATOM      7  N   LIG    1      171.777 148.035 145.811  0.00  0.00    -0.056 NA
ATOM      8  C   LIG    1      171.150 147.412 146.750  0.00  0.00    +0.209 A 
ATOM      9  N   LIG    1      170.384 148.259 147.484  0.00  0.00    -0.191 NA
BRANCH   8  10
ATOM     10  C   LIG    1      171.252 145.978 146.990  0.00  0.00    +0.060 A 
ATOM     11  S   LIG    1      170.137 145.141 148.029  0.00  0.00    -0.093 S 
ATOM     12  C   LIG    1      170.936 143.637 147.751  0.00  0.00    +0.046 A 
ATOM     13  C   LIG    1      172.000 143.777 146.906  0.00  0.00    +0.008 A 
ATOM     14  C   LIG    1      172.179 145.100 146.475  0.00  0.00    +0.019 A 
ENDBRANCH   8  10
ENDBRANCH   3   5
BRANCH   1  15
ATOM     15  S   LIG    1      167.914 152.923 148.715  0.00  0.00    +0.061 S 
ATOM     16  O   LIG    1      168.952 153.591 149.419  0.00  0.00    -0.153 OA
ATOM     17  O   LIG    1      167.512 153.508 147.482  0.00  0.00    -0.153 OA
BRANCH  15  20
ATOM     18  C   LIG    1      166.171 155.299 149.973  0.00  0.00    +0.046 C 
ATOM     19  C   LIG    1      165.756 153.872 150.296  0.00  0.00    -0.024 A 
ATOM     20  C   LIG    1      166.459 152.761 149.789  0.00  0.00    +0.110 A 
ATOM     21  C   LIG    1      166.019 151.475 150.121  0.00  0.00    +0.048 A 
ATOM     22  C   LIG    1      164.909 151.292 150.943  0.00  0.00    +0.043 A 
ATOM     23 CL   LIG    1      164.390 149.690 151.346  0.00  0.00    -0.083 Cl
ATOM     24  C   LIG    1      164.220 152.392 151.441  0.00  0.00    +0.020 A 
ATOM     25  C   LIG    1      164.644 153.674 151.116  0.00  0.00    +0.007 A 
ENDBRANCH  15  20
ENDBRANCH   1  15
TORSDOF 4
ENDMDL
MODEL 5
REMARK VINA RESULT:      -7.4      3.095      8.229
REMARK  Name = ZINC000049483826
REMARK                            x       y       z     vdW  Elec       q    Type
REMARK                         _______ _______ _______ _____ _____    ______ ____
ROOT
ATOM      1  N   LIG    1      170.232 150.014 147.049  0.00  0.00    -0.175 NA
ATOM      2  C   LIG    1      171.567 149.446 147.266  0.00  0.00    +0.123 C 
ATOM      3  C   LIG    1      171.250 148.493 146.086  0.00  0.00    +0.109 C 
ATOM      4  C   LIG    1      169.755 148.852 146.291  0.00  0.00    +0.123 C 
ENDROOT
BRANCH   3   5
ATOM      5  C   LIG    1      171.553 147.049 146.404  0.00  0.00    +0.233 A 
ATOM      6  O   LIG    1      172.739 146.560 146.114  0.00  0.00    -0.337 OA
ATOM      7  N   LIG    1      172.761 145.297 146.482  0.00  0.00    -0.056 NA
ATOM      8  C   LIG    1      171.594 145.066 146.982  0.00  0.00    +0.209 A 
ATOM      9  N   LIG    1      170.808 146.172 146.942  0.00  0.00    -0.191 NA
BRANCH   8  10
ATOM     10  C   LIG    1      171.176 143.779 147.521  0.00  0.00    +0.060 A 
ATOM     11  S   LIG    1      172.325 142.609 148.098  0.00  0.00    -0.093 S 
ATOM     12  C   LIG    1      171.064 141.505 148.509  0.00  0.00    +0.046 A 
ATOM     13  C   LIG    1      169.830 142.014 148.217  0.00  0.00    +0.008 A 
ATOM     14  C   LIG    1      169.893 143.299 147.659  0.00  0.00    +0.019 A 
ENDBRANCH   8  10
ENDBRANCH   3   5
BRANCH   1  15
ATOM     15  S   LIG    1      170.008 151.561 146.544  0.00  0.00    +0.061 S 
ATOM     16  O   LIG    1      171.064 152.368 147.048  0.00  0.00    -0.153 OA
ATOM     17  O   LIG    1      169.851 151.539 145.130  0.00  0.00    -0.153 OA
BRANCH  15  20
ATOM     18  C   LIG    1      169.536 152.470 149.580  0.00  0.00    +0.046 C 
ATOM     19  C   LIG    1      168.331 152.456 148.652  0.00  0.00    -0.024 A 
ATOM     20  C   LIG    1      168.439 152.074 147.300  0.00  0.00    +0.110 A 
ATOM     21  C   LIG    1      167.291 152.091 146.501  0.00  0.00    +0.048 A 
ATOM     22  C   LIG    1      166.060 152.474 147.029  0.00  0.00    +0.043 A 
ATOM     23 CL   LIG    1      164.653 152.479 146.021  0.00  0.00    -0.083 Cl
ATOM     24  C   LIG    1      165.959 152.850 148.364  0.00  0.00    +0.020 A 
ATOM     25  C   LIG    1      167.092 152.841 149.168  0.00  0.00    +0.007 A 
ENDBRANCH  15  20
ENDBRANCH   1  15
TORSDOF 4
ENDMDL
MODEL 6
REMARK VINA RESULT:      -7.3     73.185     74.223
REMARK  Name = ZINC000049483826
REMARK                            x       y       z     vdW  Elec       q    Type
REMARK                         _______ _______ _______ _____ _____    ______ ____
ROOT
ATOM      1  N   LIG    1      198.967  82.706 163.743  0.00  0.00    -0.175 NA
ATOM      2  C   LIG    1      198.085  82.133 164.765  0.00  0.00    +0.123 C 
ATOM      3  C   LIG    1      198.072  83.542 165.409  0.00  0.00    +0.109 C 
ATOM      4  C   LIG    1      199.338  83.858 164.571  0.00  0.00    +0.123 C 
ENDROOT
BRANCH   3   5
ATOM      5  C   LIG    1      198.348  83.508 166.893  0.00  0.00    +0.233 A 
ATOM      6  O   LIG    1      199.586  83.372 167.316  0.00  0.00    -0.337 OA
ATOM      7  N   LIG    1      199.570  83.370 168.631  0.00  0.00    -0.056 NA
ATOM      8  C   LIG    1      198.330  83.507 168.958  0.00  0.00    +0.209 A 
ATOM      9  N   LIG    1      197.533  83.598 167.863  0.00  0.00    -0.191 NA
BRANCH   8  10
ATOM     10  C   LIG    1      197.848  83.558 170.332  0.00  0.00    +0.060 A 
ATOM     11  S   LIG    1      198.683  84.457 171.565  0.00  0.00    -0.093 S 
ATOM     12  C   LIG    1      197.518  83.998 172.753  0.00  0.00    +0.046 A 
ATOM     13  C   LIG    1      196.544  83.199 172.225  0.00  0.00    +0.008 A 
ATOM     14  C   LIG    1      196.730  82.950 170.857  0.00  0.00    +0.019 A 
ENDBRANCH   8  10
ENDBRANCH   3   5
BRANCH   1  15
ATOM     15  S   LIG    1      198.512  82.847 162.170  0.00  0.00    +0.061 S 
ATOM     16  O   LIG    1      197.868  84.100 161.987  0.00  0.00    -0.153 OA
ATOM     17  O   LIG    1      199.658  82.603 161.363  0.00  0.00    -0.153 OA
BRANCH  15  20
ATOM     18  C   LIG    1      199.123  79.702 162.120  0.00  0.00    +0.046 C 
ATOM     19  C   LIG    1      197.685  80.145 161.904  0.00  0.00    -0.024 A 
ATOM     20  C   LIG    1      197.316  81.506 161.911  0.00  0.00    +0.110 A 
ATOM     21  C   LIG    1      195.973  81.842 161.712  0.00  0.00    +0.048 A 
ATOM     22  C   LIG    1      195.014  80.853 161.505  0.00  0.00    +0.043 A 
ATOM     23 CL   LIG    1      193.359  81.296 161.254  0.00  0.00    -0.083 Cl
ATOM     24  C   LIG    1      195.383  79.512 161.499  0.00  0.00    +0.020 A 
ATOM     25  C   LIG    1      196.712  79.164 161.699  0.00  0.00    +0.007 A 
ENDBRANCH  15  20
ENDBRANCH   1  15
TORSDOF 4
ENDMDL
MODEL 7
REMARK VINA RESULT:      -7.3      3.577      8.600
REMARK  Name = ZINC000049483826
REMARK                            x       y       z     vdW  Elec       q    Type
REMARK                         _______ _______ _______ _____ _____    ______ ____
ROOT
ATOM      1  N   LIG    1      168.866 149.431 146.312  0.00  0.00    -0.175 NA
ATOM      2  C   LIG    1      170.270 149.126 146.019  0.00  0.00    +0.123 C 
ATOM      3  C   LIG    1      169.756 147.800 145.404  0.00  0.00    +0.109 C 
ATOM      4  C   LIG    1      168.435 148.035 146.182  0.00  0.00    +0.123 C 
ENDROOT
BRANCH   3   5
ATOM      5  C   LIG    1      170.517 146.594 145.897  0.00  0.00    +0.233 A 
ATOM      6  O   LIG    1      171.797 146.479 145.613  0.00  0.00    -0.337 OA
ATOM      7  N   LIG    1      172.234 145.359 146.145  0.00  0.00    -0.056 NA
ATOM      8  C   LIG    1      171.210 144.837 146.732  0.00  0.00    +0.209 A 
ATOM      9  N   LIG    1      170.104 145.610 146.586  0.00  0.00    -0.191 NA
BRANCH   8  10
ATOM     10  C   LIG    1      171.240 143.575 147.460  0.00  0.00    +0.060 A 
ATOM     11  S   LIG    1      169.783 142.783 147.983  0.00  0.00    -0.093 S 
ATOM     12  C   LIG    1      170.684 141.491 148.689  0.00  0.00    +0.046 A 
ATOM     13  C   LIG    1      172.029 141.665 148.528  0.00  0.00    +0.008 A 
ATOM     14  C   LIG    1      172.344 142.842 147.834  0.00  0.00    +0.019 A 
ENDBRANCH   8  10
ENDBRANCH   3   5
BRANCH   1  15
ATOM     15  S   LIG    1      168.072 150.680 145.599  0.00  0.00    +0.061 S 
ATOM     16  O   LIG    1      168.953 151.330 144.693  0.00  0.00    -0.153 OA
ATOM     17  O   LIG    1      166.864 150.169 145.046  0.00  0.00    -0.153 OA
BRANCH  15  20
ATOM     18  C   LIG    1      165.409 152.434 145.913  0.00  0.00    +0.046 C 
ATOM     19  C   LIG    1      166.458 152.542 147.009  0.00  0.00    -0.024 A 
ATOM     20  C   LIG    1      167.661 151.808 146.961  0.00  0.00    +0.110 A 
ATOM     21  C   LIG    1      168.579 151.950 148.007  0.00  0.00    +0.048 A 
ATOM     22  C   LIG    1      168.316 152.804 149.075  0.00  0.00    +0.043 A 
ATOM     23 CL   LIG    1      169.473 152.968 150.353  0.00  0.00    -0.083 Cl
ATOM     24  C   LIG    1      167.128 153.525 149.117  0.00  0.00    +0.020 A 
ATOM     25  C   LIG    1      166.206 153.391 148.088  0.00  0.00    +0.007 A 
ENDBRANCH  15  20
ENDBRANCH   1  15
TORSDOF 4
ENDMDL
MODEL 8
REMARK VINA RESULT:      -7.2      4.294      8.542
REMARK  Name = ZINC000049483826
REMARK                            x       y       z     vdW  Elec       q    Type
REMARK                         _______ _______ _______ _____ _____    ______ ____
ROOT
ATOM      1  N   LIG    1      169.160 145.557 146.145  0.00  0.00    -0.175 NA
ATOM      2  C   LIG    1      170.207 144.548 145.949  0.00  0.00    +0.123 C 
ATOM      3  C   LIG    1      169.236 143.547 146.624  0.00  0.00    +0.109 C 
ATOM      4  C   LIG    1      168.463 144.776 147.171  0.00  0.00    +0.123 C 
ENDROOT
BRANCH   3   5
ATOM      5  C   LIG    1      169.895 142.739 147.715  0.00  0.00    +0.233 A 
ATOM      6  O   LIG    1      169.850 141.425 147.661  0.00  0.00    -0.337 OA
ATOM      7  N   LIG    1      170.487 140.952 148.709  0.00  0.00    -0.056 NA
ATOM      8  C   LIG    1      170.897 141.989 149.358  0.00  0.00    +0.209 A 
ATOM      9  N   LIG    1      170.529 143.140 148.740  0.00  0.00    -0.191 NA
BRANCH   8  10
ATOM     10  C   LIG    1      171.657 141.929 150.599  0.00  0.00    +0.060 A 
ATOM     11  S   LIG    1      173.215 141.161 150.685  0.00  0.00    -0.093 S 
ATOM     12  C   LIG    1      173.357 141.531 152.364  0.00  0.00    +0.046 A 
ATOM     13  C   LIG    1      172.265 142.208 152.828  0.00  0.00    +0.008 A 
ATOM     14  C   LIG    1      171.304 142.433 151.831  0.00  0.00    +0.019 A 
ENDBRANCH   8  10
ENDBRANCH   3   5
BRANCH   1  15
ATOM     15  S   LIG    1      168.383 146.270 144.885  0.00  0.00    +0.061 S 
ATOM     16  O   LIG    1      168.858 145.705 143.671  0.00  0.00    -0.153 OA
ATOM     17  O   LIG    1      166.984 146.168 145.123  0.00  0.00    -0.153 OA
BRANCH  15  20
ATOM     18  C   LIG    1      171.323 147.481 144.487  0.00  0.00    +0.046 C 
ATOM     19  C   LIG    1      170.193 148.454 144.782  0.00  0.00    -0.024 A 
ATOM     20  C   LIG    1      168.866 148.018 144.970  0.00  0.00    +0.110 A 
ATOM     21  C   LIG    1      167.874 148.970 145.231  0.00  0.00    +0.048 A 
ATOM     22  C   LIG    1      168.188 150.324 145.310  0.00  0.00    +0.043 A 
ATOM     23 CL   LIG    1      166.944 151.481 145.643  0.00  0.00    -0.083 Cl
ATOM     24  C   LIG    1      169.500 150.749 145.124  0.00  0.00    +0.020 A 
ATOM     25  C   LIG    1      170.494 149.816 144.860  0.00  0.00    +0.007 A 
ENDBRANCH  15  20
ENDBRANCH   1  15
TORSDOF 4
ENDMDL
MODEL 9
REMARK VINA RESULT:      -7.1     73.312     75.312
REMARK  Name = ZINC000049483826
REMARK                            x       y       z     vdW  Elec       q    Type
REMARK                         _______ _______ _______ _____ _____    ______ ____
ROOT
ATOM      1  N   LIG    1      197.881  81.907 166.068  0.00  0.00    -0.175 NA
ATOM      2  C   LIG    1      197.355  80.550 165.886  0.00  0.00    +0.123 C 
ATOM      3  C   LIG    1      198.209  80.494 164.594  0.00  0.00    +0.109 C 
ATOM      4  C   LIG    1      198.289  82.041 164.665  0.00  0.00    +0.123 C 
ENDROOT
BRANCH   3   5
ATOM      5  C   LIG    1      197.427  80.004 163.399  0.00  0.00    +0.233 A 
ATOM      6  O   LIG    1      198.060  79.391 162.422  0.00  0.00    -0.337 OA
ATOM      7  N   LIG    1      197.176  79.063 161.506  0.00  0.00    -0.056 NA
ATOM      8  C   LIG    1      196.043  79.484 161.957  0.00  0.00    +0.209 A 
ATOM      9  N   LIG    1      196.182  80.088 163.165  0.00  0.00    -0.191 NA
BRANCH   8  10
ATOM     10  C   LIG    1      194.775  79.330 161.256  0.00  0.00    +0.060 A 
ATOM     11  S   LIG    1      193.686  80.666 161.027  0.00  0.00    -0.093 S 
ATOM     12  C   LIG    1      192.561  79.664 160.185  0.00  0.00    +0.046 A 
ATOM     13  C   LIG    1      193.005  78.376 160.087  0.00  0.00    +0.008 A 
ATOM     14  C   LIG    1      194.256  78.186 160.693  0.00  0.00    +0.019 A 
ENDBRANCH   8  10
ENDBRANCH   3   5
BRANCH   1  15
ATOM     15  S   LIG    1      198.861  82.307 167.324  0.00  0.00    +0.061 S 
ATOM     16  O   LIG    1      199.688  81.194 167.636  0.00  0.00    -0.153 OA
ATOM     17  O   LIG    1      199.532  83.515 166.985  0.00  0.00    -0.153 OA
BRANCH  15  20
ATOM     18  C   LIG    1      196.928  84.836 167.683  0.00  0.00    +0.046 C 
ATOM     19  C   LIG    1      196.919  83.781 168.777  0.00  0.00    -0.024 A 
ATOM     20  C   LIG    1      197.733  82.632 168.709  0.00  0.00    +0.110 A 
ATOM     21  C   LIG    1      197.669  81.698 169.748  0.00  0.00    +0.048 A 
ATOM     22  C   LIG    1      196.823  81.898 170.836  0.00  0.00    +0.043 A 
ATOM     23 CL   LIG    1      196.769  80.731 172.114  0.00  0.00    -0.083 Cl
ATOM     24  C   LIG    1      196.022  83.034 170.899  0.00  0.00    +0.020 A 
ATOM     25  C   LIG    1      196.072  83.968 169.872  0.00  0.00    +0.007 A 
ENDBRANCH  15  20
ENDBRANCH   1  15
TORSDOF 4
ENDMDL
