REMARK VINA RESULT:      -7.7      6.858      9.343
REMARK  Name = ZINC000049410085
REMARK                            x       y       z     vdW  Elec       q    Type
REMARK                         _______ _______ _______ _____ _____    ______ ____
ROOT
ATOM      1  C   LIG    1      170.342 142.199 152.749  0.00  0.00    +0.247 C 
ATOM      2  N   LIG    1      170.359 142.156 151.358  0.00  0.00    -0.297 N 
ATOM      3  C   LIG    1      170.238 143.377 150.544  0.00  0.00    +0.112 C 
ATOM      4  C   LIG    1      168.746 143.467 150.184  0.00  0.00    +0.064 C 
ATOM      5  C   LIG    1      168.324 142.185 149.442  0.00  0.00    +0.102 C 
ATOM      6  N   LIG    1      166.909 142.243 149.213  0.00  0.00    -0.290 N 
ATOM      7  H   LIG    1      166.286 142.097 150.011  0.00  0.00    +0.151 HD
ATOM      8  C   LIG    1      166.367 142.896 148.159  0.00  0.00    +0.247 C 
ATOM      9  O   LIG    1      165.177 143.154 148.263  0.00  0.00    -0.270 OA
ATOM     10  C   LIG    1      167.209 143.244 147.033  0.00  0.00    +0.058 A 
ATOM     11  C   LIG    1      166.754 143.978 145.928  0.00  0.00    +0.016 A 
ATOM     12  C   LIG    1      167.614 144.277 144.879  0.00  0.00    +0.021 A 
ATOM     13  C   LIG    1      168.945 143.840 144.921  0.00  0.00    +0.043 A 
ATOM     14 CL   LIG    1      170.013 144.217 143.608  0.00  0.00    -0.083 Cl
ATOM     15  C   LIG    1      169.416 143.107 146.008  0.00  0.00    +0.043 A 
ATOM     16  C   LIG    1      168.547 142.820 147.059  0.00  0.00    +0.042 A 
ATOM     17  N   LIG    1      169.002 142.089 148.156  0.00  0.00    -0.323 N 
ATOM     18  H   LIG    1      170.019 141.982 148.234  0.00  0.00    +0.148 HD
ATOM     19  C   LIG    1      168.608 140.927 150.274  0.00  0.00    +0.064 C 
ATOM     20  C   LIG    1      170.100 140.891 150.646  0.00  0.00    +0.112 C 
ATOM     21  O   LIG    1      169.943 141.201 153.341  0.00  0.00    -0.270 OA
ENDROOT
BRANCH   1  25
ATOM     22  C   LIG    1      169.193 146.630 154.766  0.00  0.00    +0.044 C 
ATOM     23  C   LIG    1      170.213 145.564 154.430  0.00  0.00    -0.049 A 
ATOM     24  C   LIG    1      169.824 144.400 153.773  0.00  0.00    +0.016 A 
ATOM     25  C   LIG    1      170.759 143.407 153.465  0.00  0.00    +0.037 A 
ATOM     26  C   LIG    1      172.094 143.586 153.855  0.00  0.00    +0.016 A 
ATOM     27  C   LIG    1      172.492 144.746 154.512  0.00  0.00    -0.049 A 
ATOM     28  C   LIG    1      173.932 144.933 154.936  0.00  0.00    +0.044 C 
ATOM     29  C   LIG    1      171.546 145.729 154.798  0.00  0.00    +0.006 A 
ENDBRANCH   1  25
TORSDOF 1
