REMARK VINA RESULT:      -6.4      2.991      8.525
REMARK  Name = ZINC000193546412
REMARK                            x       y       z     vdW  Elec       q    Type
REMARK                         _______ _______ _______ _____ _____    ______ ____
ROOT
ATOM      1  C   LIG    1      158.318 187.419 160.002  0.00  0.00    +0.171 A 
ATOM      2  N   LIG    1      156.978 187.538 160.266  0.00  0.00    -0.204 NA
ATOM      3  C   LIG    1      156.737 188.758 160.598  0.00  0.00    +0.185 A 
ATOM      4  S   LIG    1      158.113 189.777 160.596  0.00  0.00    +0.050 S 
ATOM      5  N   LIG    1      159.043 188.502 160.131  0.00  0.00    -0.187 NA
ENDROOT
BRANCH   1   9
ATOM      6  C   LIG    1      160.054 183.690 158.824  0.00  0.00    +0.120 A 
ATOM      7  C   LIG    1      158.831 183.702 159.496  0.00  0.00    +0.046 A 
ATOM      8  C   LIG    1      158.271 184.917 159.876  0.00  0.00    +0.015 A 
ATOM      9  C   LIG    1      158.914 186.138 159.596  0.00  0.00    +0.020 A 
ATOM     10  C   LIG    1      160.146 186.091 158.916  0.00  0.00    +0.015 A 
ATOM     11  C   LIG    1      160.711 184.879 158.534  0.00  0.00    +0.046 A 
BRANCH   6  13
ATOM     12  C   LIG    1      160.435 181.223 159.019  0.00  0.00    +0.277 C 
ATOM     13  O   LIG    1      160.658 182.521 158.422  0.00  0.00    -0.495 OA
ENDBRANCH   6  13
ENDBRANCH   1   9
BRANCH   3  14
ATOM     14  N   LIG    1      155.426 189.118 160.918  0.00  0.00    -0.259 N 
ATOM     15  H   LIG    1      154.772 189.082 160.131  0.00  0.00    +0.157 HD
ATOM     16  C   LIG    1      154.916 189.503 162.129  0.00  0.00    +0.254 C 
ATOM     17  O   LIG    1      155.680 189.563 163.080  0.00  0.00    -0.270 OA
BRANCH  16  18
ATOM     18  C   LIG    1      153.502 189.831 162.245  0.00  0.00    +0.089 A 
ATOM     19  C   LIG    1      152.787 190.866 161.702  0.00  0.00    +0.182 A 
ATOM     20 BR   LIG    1      153.251 192.310 160.576  0.00  0.00    -0.008 Br
ATOM     21  O   LIG    1      151.496 190.776 162.080  0.00  0.00    -0.456 OA
ATOM     22  C   LIG    1      151.371 189.683 162.869  0.00  0.00    +0.197 A 
ATOM     23  C   LIG    1      152.572 189.081 162.992  0.00  0.00    +0.055 A 
ENDBRANCH  16  18
ENDBRANCH   3  14
TORSDOF 4
