REMARK VINA RESULT:      -6.5     82.194     86.162
REMARK  Name = ZINC000193546412
REMARK                            x       y       z     vdW  Elec       q    Type
REMARK                         _______ _______ _______ _____ _____    ______ ____
ROOT
ATOM      1  C   LIG    1      164.872 101.654 174.839  0.00  0.00    +0.171 A 
ATOM      2  N   LIG    1      164.521 102.502 173.820  0.00  0.00    -0.204 NA
ATOM      3  C   LIG    1      165.486 103.333 173.633  0.00  0.00    +0.185 A 
ATOM      4  S   LIG    1      166.826 103.107 174.676  0.00  0.00    +0.050 S 
ATOM      5  N   LIG    1      166.046 101.845 175.386  0.00  0.00    -0.187 NA
ENDROOT
BRANCH   1   9
ATOM      6  C   LIG    1      162.253  98.543 176.169  0.00  0.00    +0.120 A 
ATOM      7  C   LIG    1      162.589  98.634 174.818  0.00  0.00    +0.046 A 
ATOM      8  C   LIG    1      163.441  99.647 174.391  0.00  0.00    +0.015 A 
ATOM      9  C   LIG    1      163.973 100.585 175.296  0.00  0.00    +0.020 A 
ATOM     10  C   LIG    1      163.616 100.465 176.653  0.00  0.00    +0.015 A 
ATOM     11  C   LIG    1      162.764  99.454 177.085  0.00  0.00    +0.046 A 
BRANCH   6  13
ATOM     12  C   LIG    1      160.480  97.736 177.742  0.00  0.00    +0.277 C 
ATOM     13  O   LIG    1      161.416  97.564 176.653  0.00  0.00    -0.495 OA
ENDBRANCH   6  13
ENDBRANCH   1   9
BRANCH   3  14
ATOM     14  N   LIG    1      165.351 104.303 172.638  0.00  0.00    -0.259 N 
ATOM     15  H   LIG    1      165.943 104.153 171.816  0.00  0.00    +0.157 HD
ATOM     16  C   LIG    1      164.540 105.406 172.623  0.00  0.00    +0.254 C 
ATOM     17  O   LIG    1      163.832 105.611 173.597  0.00  0.00    -0.270 OA
BRANCH  16  18
ATOM     18  C   LIG    1      164.549 106.294 171.468  0.00  0.00    +0.089 A 
ATOM     19  C   LIG    1      164.859 106.037 170.159  0.00  0.00    +0.182 A 
ATOM     20 BR   LIG    1      165.394 104.478 169.236  0.00  0.00    -0.008 Br
ATOM     21  O   LIG    1      164.732 107.165 169.431  0.00  0.00    -0.456 OA
ATOM     22  C   LIG    1      164.339 108.156 170.267  0.00  0.00    +0.197 A 
ATOM     23  C   LIG    1      164.217 107.662 171.516  0.00  0.00    +0.055 A 
ENDBRANCH  16  18
ENDBRANCH   3  14
TORSDOF 4
