MODEL 1
REMARK VINA RESULT:      -9.1      0.000      0.000
REMARK  Name = ZINC000049410085
REMARK                            x       y       z     vdW  Elec       q    Type
REMARK                         _______ _______ _______ _____ _____    ______ ____
ROOT
ATOM      1  C   LIG    1      170.687 147.143 145.112  0.00  0.00    +0.247 C 
ATOM      2  N   LIG    1      170.588 148.330 145.832  0.00  0.00    -0.297 N 
ATOM      3  C   LIG    1      169.664 148.473 146.968  0.00  0.00    +0.112 C 
ATOM      4  C   LIG    1      168.404 149.125 146.374  0.00  0.00    +0.064 C 
ATOM      5  C   LIG    1      168.788 150.465 145.718  0.00  0.00    +0.102 C 
ATOM      6  N   LIG    1      167.622 151.003 145.078  0.00  0.00    -0.290 N 
ATOM      7  H   LIG    1      167.303 150.563 144.211  0.00  0.00    +0.151 HD
ATOM      8  C   LIG    1      166.693 151.725 145.745  0.00  0.00    +0.247 C 
ATOM      9  O   LIG    1      165.612 151.829 145.181  0.00  0.00    -0.270 OA
ATOM     10  C   LIG    1      167.026 152.288 147.036  0.00  0.00    +0.058 A 
ATOM     11  C   LIG    1      166.110 152.993 147.831  0.00  0.00    +0.016 A 
ATOM     12  C   LIG    1      166.496 153.510 149.061  0.00  0.00    +0.021 A 
ATOM     13  C   LIG    1      167.811 153.330 149.512  0.00  0.00    +0.043 A 
ATOM     14 CL   LIG    1      168.286 153.979 151.049  0.00  0.00    -0.083 Cl
ATOM     15  C   LIG    1      168.737 152.636 148.737  0.00  0.00    +0.043 A 
ATOM     16  C   LIG    1      168.337 152.115 147.509  0.00  0.00    +0.042 A 
ATOM     17  N   LIG    1      169.250 151.415 146.721  0.00  0.00    -0.323 N 
ATOM     18  H   LIG    1      170.121 151.133 147.185  0.00  0.00    +0.148 HD
ATOM     19  C   LIG    1      169.865 150.282 144.640  0.00  0.00    +0.064 C 
ATOM     20  C   LIG    1      171.092 149.594 145.262  0.00  0.00    +0.112 C 
ATOM     21  O   LIG    1      171.046 147.219 143.941  0.00  0.00    -0.270 OA
ENDROOT
BRANCH   1  25
ATOM     22  C   LIG    1      172.098 143.039 147.602  0.00  0.00    +0.044 C 
ATOM     23  C   LIG    1      171.023 143.862 146.926  0.00  0.00    -0.049 A 
ATOM     24  C   LIG    1      171.333 145.093 146.355  0.00  0.00    +0.016 A 
ATOM     25  C   LIG    1      170.343 145.862 145.733  0.00  0.00    +0.037 A 
ATOM     26  C   LIG    1      169.024 145.388 145.720  0.00  0.00    +0.016 A 
ATOM     27  C   LIG    1      168.705 144.159 146.289  0.00  0.00    -0.049 A 
ATOM     28  C   LIG    1      167.278 143.654 146.277  0.00  0.00    +0.044 C 
ATOM     29  C   LIG    1      169.708 143.402 146.892  0.00  0.00    +0.006 A 
ENDBRANCH   1  25
TORSDOF 1
ENDMDL
MODEL 2
REMARK VINA RESULT:      -8.4      5.172      8.042
REMARK  Name = ZINC000049410085
REMARK                            x       y       z     vdW  Elec       q    Type
REMARK                         _______ _______ _______ _____ _____    ______ ____
ROOT
ATOM      1  C   LIG    1      166.823 145.065 145.875  0.00  0.00    +0.247 C 
ATOM      2  N   LIG    1      166.625 145.120 147.253  0.00  0.00    -0.297 N 
ATOM      3  C   LIG    1      167.753 145.188 148.196  0.00  0.00    +0.112 C 
ATOM      4  C   LIG    1      167.993 143.732 148.631  0.00  0.00    +0.064 C 
ATOM      5  C   LIG    1      166.701 143.169 149.252  0.00  0.00    +0.102 C 
ATOM      6  N   LIG    1      166.913 141.782 149.551  0.00  0.00    -0.290 N 
ATOM      7  H   LIG    1      166.937 141.120 148.771  0.00  0.00    +0.151 HD
ATOM      8  C   LIG    1      167.509 141.365 150.692  0.00  0.00    +0.247 C 
ATOM      9  O   LIG    1      167.926 140.216 150.670  0.00  0.00    -0.270 OA
ATOM     10  C   LIG    1      167.620 142.281 151.808  0.00  0.00    +0.058 A 
ATOM     11  C   LIG    1      168.279 141.962 153.005  0.00  0.00    +0.016 A 
ATOM     12  C   LIG    1      168.347 142.887 154.039  0.00  0.00    +0.021 A 
ATOM     13  C   LIG    1      167.751 144.147 153.889  0.00  0.00    +0.043 A 
ATOM     14 CL   LIG    1      167.840 145.297 155.184  0.00  0.00    -0.083 Cl
ATOM     15  C   LIG    1      167.089 144.482 152.710  0.00  0.00    +0.043 A 
ATOM     16  C   LIG    1      167.034 143.550 151.677  0.00  0.00    +0.042 A 
ATOM     17  N   LIG    1      166.377 143.869 150.489  0.00  0.00    -0.323 N 
ATOM     18  H   LIG    1      166.150 144.860 150.353  0.00  0.00    +0.148 HD
ATOM     19  C   LIG    1      165.517 143.257 148.279  0.00  0.00    +0.064 C 
ATOM     20  C   LIG    1      165.332 144.719 147.838  0.00  0.00    +0.112 C 
ATOM     21  O   LIG    1      165.956 144.519 145.201  0.00  0.00    -0.270 OA
ENDROOT
BRANCH   1  25
ATOM     22  C   LIG    1      171.050 144.371 143.291  0.00  0.00    +0.044 C 
ATOM     23  C   LIG    1      170.099 145.283 144.035  0.00  0.00    -0.049 A 
ATOM     24  C   LIG    1      168.927 144.776 144.589  0.00  0.00    +0.016 A 
ATOM     25  C   LIG    1      168.040 145.615 145.273  0.00  0.00    +0.037 A 
ATOM     26  C   LIG    1      168.333 146.982 145.367  0.00  0.00    +0.016 A 
ATOM     27  C   LIG    1      169.502 147.497 144.815  0.00  0.00    -0.049 A 
ATOM     28  C   LIG    1      169.812 148.975 144.914  0.00  0.00    +0.044 C 
ATOM     29  C   LIG    1      170.379 146.643 144.149  0.00  0.00    +0.006 A 
ENDBRANCH   1  25
TORSDOF 1
ENDMDL
MODEL 3
REMARK VINA RESULT:      -8.3     45.680     50.313
REMARK  Name = ZINC000049410085
REMARK                            x       y       z     vdW  Elec       q    Type
REMARK                         _______ _______ _______ _____ _____    ______ ____
ROOT
ATOM      1  C   LIG    1      201.760 114.050 144.855  0.00  0.00    +0.247 C 
ATOM      2  N   LIG    1      202.453 113.265 145.773  0.00  0.00    -0.297 N 
ATOM      3  C   LIG    1      203.278 113.862 146.836  0.00  0.00    +0.112 C 
ATOM      4  C   LIG    1      204.709 113.864 146.272  0.00  0.00    +0.064 C 
ATOM      5  C   LIG    1      205.114 112.422 145.911  0.00  0.00    +0.102 C 
ATOM      6  N   LIG    1      206.406 112.461 145.288  0.00  0.00    -0.290 N 
ATOM      7  H   LIG    1      206.468 112.817 144.331  0.00  0.00    +0.151 HD
ATOM      8  C   LIG    1      207.557 112.486 145.998  0.00  0.00    +0.247 C 
ATOM      9  O   LIG    1      208.543 112.853 145.377  0.00  0.00    -0.270 OA
ATOM     10  C   LIG    1      207.535 112.106 147.396  0.00  0.00    +0.058 A 
ATOM     11  C   LIG    1      208.662 112.164 148.229  0.00  0.00    +0.016 A 
ATOM     12  C   LIG    1      208.573 111.783 149.562  0.00  0.00    +0.021 A 
ATOM     13  C   LIG    1      207.350 111.332 150.078  0.00  0.00    +0.043 A 
ATOM     14 CL   LIG    1      207.247 110.857 151.743  0.00  0.00    -0.083 Cl
ATOM     15  C   LIG    1      206.220 111.264 149.267  0.00  0.00    +0.043 A 
ATOM     16  C   LIG    1      206.319 111.657 147.934  0.00  0.00    +0.042 A 
ATOM     17  N   LIG    1      205.197 111.596 147.108  0.00  0.00    -0.323 N 
ATOM     18  H   LIG    1      204.296 111.467 147.582  0.00  0.00    +0.148 HD
ATOM     19  C   LIG    1      204.136 111.791 144.910  0.00  0.00    +0.064 C 
ATOM     20  C   LIG    1      202.713 111.841 145.492  0.00  0.00    +0.112 C 
ATOM     21  O   LIG    1      201.531 113.562 143.753  0.00  0.00    -0.270 OA
ENDROOT
BRANCH   1  25
ATOM     22  C   LIG    1      199.839 117.282 148.156  0.00  0.00    +0.044 C 
ATOM     23  C   LIG    1      200.408 116.984 146.785  0.00  0.00    -0.049 A 
ATOM     24  C   LIG    1      200.821 115.696 146.459  0.00  0.00    +0.016 A 
ATOM     25  C   LIG    1      201.354 115.416 145.196  0.00  0.00    +0.037 A 
ATOM     26  C   LIG    1      201.494 116.459 144.271  0.00  0.00    +0.016 A 
ATOM     27  C   LIG    1      201.084 117.750 144.589  0.00  0.00    -0.049 A 
ATOM     28  C   LIG    1      201.243 118.875 143.589  0.00  0.00    +0.044 C 
ATOM     29  C   LIG    1      200.544 118.006 145.848  0.00  0.00    +0.006 A 
ENDBRANCH   1  25
TORSDOF 1
ENDMDL
MODEL 4
REMARK VINA RESULT:      -8.3      6.265      8.623
REMARK  Name = ZINC000049410085
REMARK                            x       y       z     vdW  Elec       q    Type
REMARK                         _______ _______ _______ _____ _____    ______ ____
ROOT
ATOM      1  C   LIG    1      166.562 143.568 147.730  0.00  0.00    +0.247 C 
ATOM      2  N   LIG    1      166.401 143.956 149.058  0.00  0.00    -0.297 N 
ATOM      3  C   LIG    1      167.492 144.587 149.818  0.00  0.00    +0.112 C 
ATOM      4  C   LIG    1      168.155 143.433 150.591  0.00  0.00    +0.064 C 
ATOM      5  C   LIG    1      167.100 142.745 151.478  0.00  0.00    +0.102 C 
ATOM      6  N   LIG    1      167.712 141.609 152.105  0.00  0.00    -0.290 N 
ATOM      7  H   LIG    1      167.900 140.785 151.529  0.00  0.00    +0.151 HD
ATOM      8  C   LIG    1      168.440 141.708 153.241  0.00  0.00    +0.247 C 
ATOM      9  O   LIG    1      169.169 140.755 153.476  0.00  0.00    -0.270 OA
ATOM     10  C   LIG    1      168.319 142.897 154.059  0.00  0.00    +0.058 A 
ATOM     11  C   LIG    1      169.080 143.118 155.216  0.00  0.00    +0.016 A 
ATOM     12  C   LIG    1      168.913 144.282 155.956  0.00  0.00    +0.021 A 
ATOM     13  C   LIG    1      167.975 145.240 155.548  0.00  0.00    +0.043 A 
ATOM     14 CL   LIG    1      167.772 146.690 156.478  0.00  0.00    -0.083 Cl
ATOM     15  C   LIG    1      167.207 145.038 154.404  0.00  0.00    +0.043 A 
ATOM     16  C   LIG    1      167.389 143.872 153.665  0.00  0.00    +0.042 A 
ATOM     17  N   LIG    1      166.629 143.654 152.516  0.00  0.00    -0.323 N 
ATOM     18  H   LIG    1      166.122 144.467 152.150  0.00  0.00    +0.148 HD
ATOM     19  C   LIG    1      165.910 142.235 150.654  0.00  0.00    +0.064 C 
ATOM     20  C   LIG    1      165.298 143.407 149.868  0.00  0.00    +0.112 C 
ATOM     21  O   LIG    1      165.867 142.642 147.324  0.00  0.00    -0.270 OA
ENDROOT
BRANCH   1  25
ATOM     22  C   LIG    1      171.261 143.935 146.053  0.00  0.00    +0.044 C 
ATOM     23  C   LIG    1      169.828 144.423 146.068  0.00  0.00    -0.049 A 
ATOM     24  C   LIG    1      168.876 143.787 146.859  0.00  0.00    +0.016 A 
ATOM     25  C   LIG    1      167.549 144.229 146.873  0.00  0.00    +0.037 A 
ATOM     26  C   LIG    1      167.183 145.305 146.053  0.00  0.00    +0.016 A 
ATOM     27  C   LIG    1      168.127 145.947 145.260  0.00  0.00    -0.049 A 
ATOM     28  C   LIG    1      167.726 147.105 144.372  0.00  0.00    +0.044 C 
ATOM     29  C   LIG    1      169.448 145.500 145.270  0.00  0.00    +0.006 A 
ENDBRANCH   1  25
TORSDOF 1
ENDMDL
MODEL 5
REMARK VINA RESULT:      -8.1     46.848     49.114
REMARK  Name = ZINC000049410085
REMARK                            x       y       z     vdW  Elec       q    Type
REMARK                         _______ _______ _______ _____ _____    ______ ____
ROOT
ATOM      1  C   LIG    1      205.198 115.727 145.778  0.00  0.00    +0.247 C 
ATOM      2  N   LIG    1      203.881 115.418 145.450  0.00  0.00    -0.297 N 
ATOM      3  C   LIG    1      203.532 114.188 144.720  0.00  0.00    +0.112 C 
ATOM      4  C   LIG    1      203.441 114.616 143.245  0.00  0.00    +0.064 C 
ATOM      5  C   LIG    1      202.392 115.735 143.106  0.00  0.00    +0.102 C 
ATOM      6  N   LIG    1      202.401 116.193 141.746  0.00  0.00    -0.290 N 
ATOM      7  H   LIG    1      203.190 116.766 141.436  0.00  0.00    +0.151 HD
ATOM      8  C   LIG    1      201.706 115.574 140.765  0.00  0.00    +0.247 C 
ATOM      9  O   LIG    1      202.058 115.848 139.626  0.00  0.00    -0.270 OA
ATOM     10  C   LIG    1      200.644 114.655 141.120  0.00  0.00    +0.058 A 
ATOM     11  C   LIG    1      199.914 113.918 140.176  0.00  0.00    +0.016 A 
ATOM     12  C   LIG    1      198.906 113.054 140.585  0.00  0.00    +0.021 A 
ATOM     13  C   LIG    1      198.612 112.919 141.949  0.00  0.00    +0.043 A 
ATOM     14 CL   LIG    1      197.352 111.839 142.451  0.00  0.00    -0.083 Cl
ATOM     15  C   LIG    1      199.323 113.645 142.902  0.00  0.00    +0.043 A 
ATOM     16  C   LIG    1      200.338 114.502 142.481  0.00  0.00    +0.042 A 
ATOM     17  N   LIG    1      201.061 115.235 143.422  0.00  0.00    -0.323 N 
ATOM     18  H   LIG    1      200.952 114.943 144.399  0.00  0.00    +0.148 HD
ATOM     19  C   LIG    1      202.722 116.938 144.002  0.00  0.00    +0.064 C 
ATOM     20  C   LIG    1      202.842 116.465 145.460  0.00  0.00    +0.112 C 
ATOM     21  O   LIG    1      205.485 116.913 145.906  0.00  0.00    -0.270 OA
ENDROOT
BRANCH   1  25
ATOM     22  C   LIG    1      207.520 112.375 148.676  0.00  0.00    +0.044 C 
ATOM     23  C   LIG    1      207.340 113.053 147.335  0.00  0.00    -0.049 A 
ATOM     24  C   LIG    1      206.375 114.042 147.170  0.00  0.00    +0.016 A 
ATOM     25  C   LIG    1      206.198 114.669 145.932  0.00  0.00    +0.037 A 
ATOM     26  C   LIG    1      206.988 114.263 144.847  0.00  0.00    +0.016 A 
ATOM     27  C   LIG    1      207.955 113.275 145.002  0.00  0.00    -0.049 A 
ATOM     28  C   LIG    1      208.802 112.837 143.827  0.00  0.00    +0.044 C 
ATOM     29  C   LIG    1      208.124 112.672 146.248  0.00  0.00    +0.006 A 
ENDBRANCH   1  25
TORSDOF 1
ENDMDL
MODEL 6
REMARK VINA RESULT:      -8.0     49.276     53.275
REMARK  Name = ZINC000049410085
REMARK                            x       y       z     vdW  Elec       q    Type
REMARK                         _______ _______ _______ _____ _____    ______ ____
ROOT
ATOM      1  C   LIG    1      164.098 106.782 172.726  0.00  0.00    +0.247 C 
ATOM      2  N   LIG    1      163.710 105.446 172.784  0.00  0.00    -0.297 N 
ATOM      3  C   LIG    1      162.762 104.958 173.799  0.00  0.00    +0.112 C 
ATOM      4  C   LIG    1      163.644 104.399 174.928  0.00  0.00    +0.064 C 
ATOM      5  C   LIG    1      164.560 103.299 174.359  0.00  0.00    +0.102 C 
ATOM      6  N   LIG    1      165.446 102.868 175.401  0.00  0.00    -0.290 N 
ATOM      7  H   LIG    1      166.209 103.494 175.673  0.00  0.00    +0.151 HD
ATOM      8  C   LIG    1      165.094 101.941 176.321  0.00  0.00    +0.247 C 
ATOM      9  O   LIG    1      165.790 101.915 177.326  0.00  0.00    -0.270 OA
ATOM     10  C   LIG    1      163.951 101.089 176.065  0.00  0.00    +0.058 A 
ATOM     11  C   LIG    1      163.470 100.147 176.986  0.00  0.00    +0.016 A 
ATOM     12  C   LIG    1      162.368  99.359 176.677  0.00  0.00    +0.021 A 
ATOM     13  C   LIG    1      161.734  99.503 175.435  0.00  0.00    +0.043 A 
ATOM     14 CL   LIG    1      160.359  98.515 175.056  0.00  0.00    -0.083 Cl
ATOM     15  C   LIG    1      162.198 100.430 174.506  0.00  0.00    +0.043 A 
ATOM     16  C   LIG    1      163.298 101.221 174.830  0.00  0.00    +0.042 A 
ATOM     17  N   LIG    1      163.775 102.156 173.912  0.00  0.00    -0.323 N 
ATOM     18  H   LIG    1      163.156 102.367 173.121  0.00  0.00    +0.148 HD
ATOM     19  C   LIG    1      165.424 103.821 173.202  0.00  0.00    +0.064 C 
ATOM     20  C   LIG    1      164.510 104.406 172.112  0.00  0.00    +0.112 C 
ATOM     21  O   LIG    1      165.200 107.031 172.248  0.00  0.00    -0.270 OA
ENDROOT
BRANCH   1  25
ATOM     22  C   LIG    1      163.084 110.199 176.237  0.00  0.00    +0.044 C 
ATOM     23  C   LIG    1      162.719 109.484 174.954  0.00  0.00    -0.049 A 
ATOM     24  C   LIG    1      163.553 108.498 174.435  0.00  0.00    +0.016 A 
ATOM     25  C   LIG    1      163.225 107.837 173.247  0.00  0.00    +0.037 A 
ATOM     26  C   LIG    1      162.055 108.203 172.567  0.00  0.00    +0.016 A 
ATOM     27  C   LIG    1      161.216 109.188 173.077  0.00  0.00    -0.049 A 
ATOM     28  C   LIG    1      159.957 109.584 172.337  0.00  0.00    +0.044 C 
ATOM     29  C   LIG    1      161.554 109.825 174.270  0.00  0.00    +0.006 A 
ENDBRANCH   1  25
TORSDOF 1
ENDMDL
MODEL 7
REMARK VINA RESULT:      -7.9     46.423     51.496
REMARK  Name = ZINC000049410085
REMARK                            x       y       z     vdW  Elec       q    Type
REMARK                         _______ _______ _______ _____ _____    ______ ____
ROOT
ATOM      1  C   LIG    1      203.966 115.221 144.253  0.00  0.00    +0.247 C 
ATOM      2  N   LIG    1      204.757 114.076 144.299  0.00  0.00    -0.297 N 
ATOM      3  C   LIG    1      204.556 113.036 145.321  0.00  0.00    +0.112 C 
ATOM      4  C   LIG    1      205.569 113.369 146.429  0.00  0.00    +0.064 C 
ATOM      5  C   LIG    1      206.989 113.382 145.831  0.00  0.00    +0.102 C 
ATOM      6  N   LIG    1      207.904 113.799 146.854  0.00  0.00    -0.290 N 
ATOM      7  H   LIG    1      207.907 114.787 147.123  0.00  0.00    +0.151 HD
ATOM      8  C   LIG    1      208.418 112.943 147.766  0.00  0.00    +0.247 C 
ATOM      9  O   LIG    1      208.898 113.468 148.760  0.00  0.00    -0.270 OA
ATOM     10  C   LIG    1      208.350 111.518 147.516  0.00  0.00    +0.058 A 
ATOM     11  C   LIG    1      208.795 110.552 148.431  0.00  0.00    +0.016 A 
ATOM     12  C   LIG    1      208.702 109.199 148.127  0.00  0.00    +0.021 A 
ATOM     13  C   LIG    1      208.165 108.795 146.897  0.00  0.00    +0.043 A 
ATOM     14 CL   LIG    1      208.054 107.105 146.525  0.00  0.00    -0.083 Cl
ATOM     15  C   LIG    1      207.721 109.738 145.974  0.00  0.00    +0.043 A 
ATOM     16  C   LIG    1      207.811 111.092 146.292  0.00  0.00    +0.042 A 
ATOM     17  N   LIG    1      207.369 112.050 145.380  0.00  0.00    -0.323 N 
ATOM     18  H   LIG    1      206.799 111.701 144.602  0.00  0.00    +0.148 HD
ATOM     19  C   LIG    1      207.107 114.378 144.669  0.00  0.00    +0.064 C 
ATOM     20  C   LIG    1      206.055 114.037 143.601  0.00  0.00    +0.112 C 
ATOM     21  O   LIG    1      204.460 116.231 143.762  0.00  0.00    -0.270 OA
ENDROOT
BRANCH   1  25
ATOM     22  C   LIG    1      200.534 117.211 147.301  0.00  0.00    +0.044 C 
ATOM     23  C   LIG    1      200.944 116.163 146.290  0.00  0.00    -0.049 A 
ATOM     24  C   LIG    1      202.224 116.175 145.742  0.00  0.00    +0.016 A 
ATOM     25  C   LIG    1      202.608 115.213 144.802  0.00  0.00    +0.037 A 
ATOM     26  C   LIG    1      201.673 114.251 144.394  0.00  0.00    +0.016 A 
ATOM     27  C   LIG    1      200.392 114.231 144.936  0.00  0.00    -0.049 A 
ATOM     28  C   LIG    1      199.385 113.194 144.488  0.00  0.00    +0.044 C 
ATOM     29  C   LIG    1      200.033 115.190 145.881  0.00  0.00    +0.006 A 
ENDBRANCH   1  25
TORSDOF 1
ENDMDL
MODEL 8
REMARK VINA RESULT:      -7.7     49.082     52.664
REMARK  Name = ZINC000049410085
REMARK                            x       y       z     vdW  Elec       q    Type
REMARK                         _______ _______ _______ _____ _____    ______ ____
ROOT
ATOM      1  C   LIG    1      162.853 107.438 172.305  0.00  0.00    +0.247 C 
ATOM      2  N   LIG    1      162.605 106.080 172.489  0.00  0.00    -0.297 N 
ATOM      3  C   LIG    1      162.241 105.530 173.804  0.00  0.00    +0.112 C 
ATOM      4  C   LIG    1      163.564 105.022 174.401  0.00  0.00    +0.064 C 
ATOM      5  C   LIG    1      164.185 103.983 173.447  0.00  0.00    +0.102 C 
ATOM      6  N   LIG    1      165.467 103.604 173.968  0.00  0.00    -0.290 N 
ATOM      7  H   LIG    1      166.236 104.274 173.889  0.00  0.00    +0.151 HD
ATOM      8  C   LIG    1      165.615 102.653 174.918  0.00  0.00    +0.247 C 
ATOM      9  O   LIG    1      166.688 102.665 175.504  0.00  0.00    -0.270 OA
ATOM     10  C   LIG    1      164.526 101.733 175.174  0.00  0.00    +0.058 A 
ATOM     11  C   LIG    1      164.561 100.758 176.182  0.00  0.00    +0.016 A 
ATOM     12  C   LIG    1      163.481  99.905 176.374  0.00  0.00    +0.021 A 
ATOM     13  C   LIG    1      162.351 100.014 175.552  0.00  0.00    +0.043 A 
ATOM     14 CL   LIG    1      161.007  98.945 175.798  0.00  0.00    -0.083 Cl
ATOM     15  C   LIG    1      162.297 100.973 174.544  0.00  0.00    +0.043 A 
ATOM     16  C   LIG    1      163.382 101.829 174.366  0.00  0.00    +0.042 A 
ATOM     17  N   LIG    1      163.346 102.796 173.362  0.00  0.00    -0.323 N 
ATOM     18  H   LIG    1      162.427 102.971 172.940  0.00  0.00    +0.148 HD
ATOM     19  C   LIG    1      164.409 104.564 172.043  0.00  0.00    +0.064 C 
ATOM     20  C   LIG    1      163.073 105.095 171.496  0.00  0.00    +0.112 C 
ATOM     21  O   LIG    1      163.609 107.757 171.393  0.00  0.00    -0.270 OA
ENDROOT
BRANCH   1  25
ATOM     22  C   LIG    1      158.948 110.302 173.561  0.00  0.00    +0.044 C 
ATOM     23  C   LIG    1      160.368 109.838 173.800  0.00  0.00    -0.049 A 
ATOM     24  C   LIG    1      160.942 108.873 172.977  0.00  0.00    +0.016 A 
ATOM     25  C   LIG    1      162.252 108.434 173.195  0.00  0.00    +0.037 A 
ATOM     26  C   LIG    1      162.972 108.959 174.278  0.00  0.00    +0.016 A 
ATOM     27  C   LIG    1      162.407 109.923 175.106  0.00  0.00    -0.049 A 
ATOM     28  C   LIG    1      163.187 110.483 176.276  0.00  0.00    +0.044 C 
ATOM     29  C   LIG    1      161.105 110.357 174.863  0.00  0.00    +0.006 A 
ENDBRANCH   1  25
TORSDOF 1
ENDMDL
MODEL 9
REMARK VINA RESULT:      -7.7      6.858      9.343
REMARK  Name = ZINC000049410085
REMARK                            x       y       z     vdW  Elec       q    Type
REMARK                         _______ _______ _______ _____ _____    ______ ____
ROOT
ATOM      1  C   LIG    1      170.342 142.199 152.749  0.00  0.00    +0.247 C 
ATOM      2  N   LIG    1      170.359 142.156 151.358  0.00  0.00    -0.297 N 
ATOM      3  C   LIG    1      170.238 143.377 150.544  0.00  0.00    +0.112 C 
ATOM      4  C   LIG    1      168.746 143.467 150.184  0.00  0.00    +0.064 C 
ATOM      5  C   LIG    1      168.324 142.185 149.442  0.00  0.00    +0.102 C 
ATOM      6  N   LIG    1      166.909 142.243 149.213  0.00  0.00    -0.290 N 
ATOM      7  H   LIG    1      166.286 142.097 150.011  0.00  0.00    +0.151 HD
ATOM      8  C   LIG    1      166.367 142.896 148.159  0.00  0.00    +0.247 C 
ATOM      9  O   LIG    1      165.177 143.154 148.263  0.00  0.00    -0.270 OA
ATOM     10  C   LIG    1      167.209 143.244 147.033  0.00  0.00    +0.058 A 
ATOM     11  C   LIG    1      166.754 143.978 145.928  0.00  0.00    +0.016 A 
ATOM     12  C   LIG    1      167.614 144.277 144.879  0.00  0.00    +0.021 A 
ATOM     13  C   LIG    1      168.945 143.840 144.921  0.00  0.00    +0.043 A 
ATOM     14 CL   LIG    1      170.013 144.217 143.608  0.00  0.00    -0.083 Cl
ATOM     15  C   LIG    1      169.416 143.107 146.008  0.00  0.00    +0.043 A 
ATOM     16  C   LIG    1      168.547 142.820 147.059  0.00  0.00    +0.042 A 
ATOM     17  N   LIG    1      169.002 142.089 148.156  0.00  0.00    -0.323 N 
ATOM     18  H   LIG    1      170.019 141.982 148.234  0.00  0.00    +0.148 HD
ATOM     19  C   LIG    1      168.608 140.927 150.274  0.00  0.00    +0.064 C 
ATOM     20  C   LIG    1      170.100 140.891 150.646  0.00  0.00    +0.112 C 
ATOM     21  O   LIG    1      169.943 141.201 153.341  0.00  0.00    -0.270 OA
ENDROOT
BRANCH   1  25
ATOM     22  C   LIG    1      169.193 146.630 154.766  0.00  0.00    +0.044 C 
ATOM     23  C   LIG    1      170.213 145.564 154.430  0.00  0.00    -0.049 A 
ATOM     24  C   LIG    1      169.824 144.400 153.773  0.00  0.00    +0.016 A 
ATOM     25  C   LIG    1      170.759 143.407 153.465  0.00  0.00    +0.037 A 
ATOM     26  C   LIG    1      172.094 143.586 153.855  0.00  0.00    +0.016 A 
ATOM     27  C   LIG    1      172.492 144.746 154.512  0.00  0.00    -0.049 A 
ATOM     28  C   LIG    1      173.932 144.933 154.936  0.00  0.00    +0.044 C 
ATOM     29  C   LIG    1      171.546 145.729 154.798  0.00  0.00    +0.006 A 
ENDBRANCH   1  25
TORSDOF 1
ENDMDL
