REMARK VINA RESULT:      -6.9     51.247     53.238
REMARK  Name = ZINC000009075134
REMARK                            x       y       z     vdW  Elec       q    Type
REMARK                         _______ _______ _______ _____ _____    ______ ____
ROOT
ATOM      1  C   LIG    1      164.541 104.245 172.626  0.00  0.00    +0.061 A 
ATOM      2  C   LIG    1      165.336 103.658 173.626  0.00  0.00    +0.039 A 
ATOM      3  C   LIG    1      164.745 103.026 174.711  0.00  0.00    +0.048 A 
ATOM      4  N   LIG    1      165.587 102.495 175.722  0.00  0.00    -0.284 N 
ATOM      5  H   LIG    1      166.553 102.834 175.819  0.00  0.00    +0.155 HD
ATOM      6  C   LIG    1      165.199 101.615 176.680  0.00  0.00    +0.227 C 
ATOM      7  C   LIG    1      163.860 100.906 176.603  0.00  0.00    +0.170 C 
ATOM      8  S   LIG    1      162.583 102.152 176.184  0.00  0.00    -0.114 S 
ATOM      9  O   LIG    1      166.001 101.406 177.564  0.00  0.00    -0.275 OA
ATOM     10  C   LIG    1      163.343 102.952 174.833  0.00  0.00    +0.030 A 
ATOM     11  C   LIG    1      162.551 103.547 173.848  0.00  0.00    +0.017 A 
ATOM     12  C   LIG    1      163.141 104.180 172.759  0.00  0.00    +0.016 A 
ENDROOT
BRANCH   1  14
ATOM     13  O   LIG    1      165.468 104.327 170.445  0.00  0.00    -0.245 OA
ATOM     14  C   LIG    1      165.166 104.902 171.482  0.00  0.00    +0.340 C 
BRANCH  14  15
ATOM     15  O   LIG    1      165.438 106.226 171.574  0.00  0.00    -0.456 OA
BRANCH  15  16
ATOM     16  C   LIG    1      164.684 107.234 170.850  0.00  0.00    +0.268 C 
BRANCH  16  17
ATOM     17  C   LIG    1      163.761 107.849 171.886  0.00  0.00    -0.010 A 
ATOM     18  C   LIG    1      162.540 108.403 171.500  0.00  0.00    +0.008 A 
ATOM     19  C   LIG    1      161.692 108.965 172.450  0.00  0.00    +0.015 A 
ATOM     20  C   LIG    1      162.057 108.975 173.794  0.00  0.00    +0.018 A 
ATOM     21 BR   LIG    1      160.904 109.741 175.085  0.00  0.00    -0.050 Br
ATOM     22  C   LIG    1      163.271 108.418 174.184  0.00  0.00    +0.015 A 
ATOM     23  C   LIG    1      164.119 107.854 173.234  0.00  0.00    +0.008 A 
ENDBRANCH  16  17
ENDBRANCH  15  16
ENDBRANCH  14  15
ENDBRANCH   1  14
TORSDOF 4
