REMARK VINA RESULT:      -6.4      5.425      8.826
REMARK  Name = ZINC000000623420
REMARK                            x       y       z     vdW  Elec       q    Type
REMARK                         _______ _______ _______ _____ _____    ______ ____
ROOT
ATOM      1  C   LIG    1      167.496 144.403 147.432  0.00  0.00    +0.102 A 
ATOM      2  C   LIG    1      167.758 144.738 146.111  0.00  0.00    -0.014 A 
ATOM      3  C   LIG    1      167.539 143.779 144.946  0.00  0.00    +0.046 C 
ATOM      4  C   LIG    1      168.251 146.063 145.947  0.00  0.00    +0.091 A 
ATOM      5  C   LIG    1      168.310 146.724 147.172  0.00  0.00    +0.087 A 
ATOM      6  S   LIG    1      167.793 145.751 148.490  0.00  0.00    -0.066 S 
ENDROOT
BRANCH   5   7
ATOM      7  N   LIG    1      168.716 148.061 147.356  0.00  0.00    -0.275 N 
ATOM      8  H   LIG    1      167.968 148.768 147.290  0.00  0.00    +0.156 HD
ATOM      9  C   LIG    1      169.978 148.581 147.581  0.00  0.00    +0.249 C 
ATOM     10  O   LIG    1      170.950 147.841 147.592  0.00  0.00    -0.270 OA
BRANCH   9  11
ATOM     11  C   LIG    1      170.053 150.031 147.771  0.00  0.00    +0.040 A 
ATOM     12  C   LIG    1      170.325 150.908 146.701  0.00  0.00    -0.038 A 
ATOM     13  C   LIG    1      170.539 150.389 145.289  0.00  0.00    +0.044 C 
ATOM     14  C   LIG    1      170.399 152.280 146.935  0.00  0.00    +0.004 A 
ATOM     15  C   LIG    1      170.211 152.792 148.215  0.00  0.00    +0.000 A 
ATOM     16  C   LIG    1      169.940 151.935 149.275  0.00  0.00    +0.001 A 
ATOM     17  C   LIG    1      169.859 150.566 149.055  0.00  0.00    +0.013 A 
ENDBRANCH   9  11
ENDBRANCH   5   7
BRANCH   1  18
ATOM     18  C   LIG    1      167.050 143.145 148.012  0.00  0.00    +0.346 C 
ATOM     19  O   LIG    1      167.726 142.408 148.723  0.00  0.00    -0.244 OA
BRANCH  18  20
ATOM     20  O   LIG    1      165.777 142.750 147.760  0.00  0.00    -0.461 OA
BRANCH  20  22
ATOM     21  C   LIG    1      164.060 143.572 146.379  0.00  0.00    +0.048 C 
ATOM     22  C   LIG    1      164.668 143.674 147.776  0.00  0.00    +0.229 C 
ENDBRANCH  20  22
ENDBRANCH  18  20
ENDBRANCH   1  18
BRANCH   4  23
ATOM     23  C   LIG    1      168.666 146.667 144.687  0.00  0.00    +0.342 C 
ATOM     24  O   LIG    1      167.909 147.057 143.805  0.00  0.00    -0.245 OA
BRANCH  23  25
ATOM     25  O   LIG    1      170.003 146.821 144.434  0.00  0.00    -0.461 OA
BRANCH  25  26
ATOM     26  C   LIG    1      170.766 145.958 143.547  0.00  0.00    +0.229 C 
ATOM     27  C   LIG    1      171.214 144.783 144.417  0.00  0.00    +0.048 C 
ENDBRANCH  25  26
ENDBRANCH  23  25
ENDBRANCH   4  23
TORSDOF 8
