REMARK VINA RESULT:     -10.4     53.493     56.204
REMARK  Name = 
REMARK                            x       y       z     vdW  Elec       q    Type
REMARK                         _______ _______ _______ _____ _____    ______ ____
ROOT
ATOM      1  C   LIG    1      195.100 137.145 138.418  0.00  0.00    +0.046 C 
ATOM      2  C   LIG    1      195.046 136.861 139.195  0.00  0.00    +0.024 C 
ATOM      3  C   LIG    1      196.149 137.575 139.569  0.00  0.00    +0.072 C 
ATOM      4  N   LIG    1      196.256 137.899 138.790  0.00  0.00    -0.274 NA
ATOM      5  C   LIG    1      196.863 138.420 138.588  0.00  0.00    +0.098 C 
ATOM      6  C   LIG    1      196.914 138.700 137.813  0.00  0.00    -0.013 C 
ATOM      7  C   LIG    1      196.365 138.463 137.247  0.00  0.00    -0.025 C 
ATOM      8  C   LIG    1      195.764 137.947 137.451  0.00  0.00    +0.067 C 
ATOM      9  C   LIG    1      195.209 137.708 136.875  0.00  0.00    +0.212 C 
ATOM     10  C   LIG    1      194.605 137.190 137.078  0.00  0.00    +0.263 C 
ATOM     11  O   LIG    1      194.663 137.474 136.310  0.00  0.00    -0.209 OA
ATOM     12  C   LIG    1      195.704 137.661 138.219  0.00  0.00    +0.087 C 
ATOM     13  C   LIG    1      194.545 136.905 137.846  0.00  0.00    +0.145 C 
ATOM     14  N   LIG    1      193.938 136.385 138.048  0.00  0.00    -0.255 N 
ATOM     15  C   LIG    1      193.389 136.148 137.482  0.00  0.00    +0.307 C 
ATOM     16  O   LIG    1      192.781 135.624 137.691  0.00  0.00    -0.265 OA
ATOM     17  C   LIG    1      193.887 136.104 138.823  0.00  0.00    +0.053 A 
ATOM     18  C   LIG    1      193.280 135.595 138.989  0.00  0.00    +0.051 A 
ATOM     19  C   LIG    1      193.206 135.298 139.759  0.00  0.00    +0.137 A 
ATOM     20  C   LIG    1      193.740 135.519 140.340  0.00  0.00    +0.026 A 
ATOM     21  C   LIG    1      194.354 136.037 140.165  0.00  0.00    -0.003 A 
ATOM     22  C   LIG    1      194.436 136.340 139.393  0.00  0.00    -0.007 A 
ENDROOT
BRANCH  20  23
ATOM     23  C   LIG    1      193.547 134.774 142.260  0.00  0.00    +0.146 C 
ATOM     24  C   LIG    1      193.020 135.393 142.428  0.00  0.00    +0.022 C 
ATOM     25  C   LIG    1      192.904 135.887 141.779  0.00  0.00    +0.020 C 
ATOM     26  C   LIG    1      192.422 136.560 141.729  0.00  0.00    +0.033 C 
ATOM     27  C   LIG    1      191.946 136.899 142.303  0.00  0.00    +0.141 C 
ATOM     28  O   LIG    1      191.281 137.668 142.540  0.00  0.00    -0.224 OA
ATOM     29  C   LIG    1      191.826 136.653 143.080  0.00  0.00    +0.103 C 
ATOM     30  N   LIG    1      192.158 136.003 143.472  0.00  0.00    -0.270 NA
ATOM     31  C   LIG    1      192.686 135.445 143.185  0.00  0.00    +0.077 C 
ATOM     32  C   LIG    1      192.874 134.888 143.766  0.00  0.00    +0.045 C 
ATOM     33  C   LIG    1      193.398 134.275 143.593  0.00  0.00    -0.005 A 
ATOM     34  C   LIG    1      194.106 133.110 144.007  0.00  0.00    +0.015 A 
ATOM     35  C   LIG    1      194.443 133.050 143.256  0.00  0.00    +0.081 A 
ATOM     36  C   LIG    1      194.967 132.441 143.077  0.00  0.00    +0.019 A 
ATOM     37  C   LIG    1      195.155 131.884 143.659  0.00  0.00    +0.002 A 
ATOM     38  C   LIG    1      194.818 131.943 144.409  0.00  0.00    +0.000 A 
ATOM     39  N   LIG    1      194.256 133.607 142.670  0.00  0.00    -0.249 NA
ATOM     40  C   LIG    1      194.296 132.552 144.584  0.00  0.00    +0.001 A 
ATOM     41  C   LIG    1      192.311 136.278 142.553  0.00  0.00    +0.072 C 
ATOM     42  C   LIG    1      193.735 134.216 142.842  0.00  0.00    +0.068 A 
BRANCH  23  43
ATOM     43  C   LIG    1      194.258 134.216 141.502  0.00  0.00    +0.325 C 
ATOM     44  O   LIG    1      193.967 133.602 141.046  0.00  0.00    -0.249 OA
BRANCH  43  45
ATOM     45  O   LIG    1      195.044 134.444 141.434  0.00  0.00    -0.444 OA
ATOM     46  C   LIG    1      195.590 133.933 141.099  0.00  0.00    +0.256 C 
ENDBRANCH  43  45
ENDBRANCH  23  43
BRANCH  27  47
ATOM     47  C   LIG    1      191.892 137.335 141.608  0.00  0.00    +0.032 C 
ATOM     48  C   LIG    1      191.358 137.887 141.307  0.00  0.00    +0.003 C 
ENDBRANCH  27  47
ENDBRANCH  20  23
BRANCH  10  49
ATOM     49  C   LIG    1      193.755 136.820 136.212  0.00  0.00    +0.350 C 
ATOM     50  O   LIG    1      193.076 137.138 136.125  0.00  0.00    -0.247 OA
BRANCH  49  51
ATOM     51  O   LIG    1      193.948 136.189 135.703  0.00  0.00    -0.443 OA
ATOM     52  C   LIG    1      193.444 136.012 135.148  0.00  0.00    +0.256 C 
ENDBRANCH  49  51
ENDBRANCH  10  49
BRANCH   8  53
ATOM     53  C   LIG    1      195.818 138.228 136.681  0.00  0.00    +0.009 C 
ATOM     54  C   LIG    1      196.564 138.334 136.342  0.00  0.00    +0.000 C 
ENDBRANCH   8  53
BRANCH  19  55
ATOM     55  O   LIG    1      192.580 134.761 139.971  0.00  0.00    -0.472 OA
ATOM     56  C   LIG    1      191.965 134.447 139.294  0.00  0.00    +0.252 C 
ENDBRANCH  19  55
BRANCH   9  57
ATOM     57  O   LIG    1      195.266 137.992 136.107  0.00  0.00    -0.449 OA
BRANCH  57  58
ATOM     58  C   LIG    1      194.968 138.574 135.936  0.00  0.00    +0.318 C 
ATOM     59  C   LIG    1      195.073 138.843 135.326  0.00  0.00    +0.121 C 
ATOM     60  O   LIG    1      194.564 138.884 136.379  0.00  0.00    -0.250 OA
ENDBRANCH  57  58
ENDBRANCH   9  57
TORSDOF 10
