REMARK VINA RESULT:      -8.1      0.000      0.000
REMARK  Name = ZINC000049408611
REMARK                            x       y       z     vdW  Elec       q    Type
REMARK                         _______ _______ _______ _____ _____    ______ ____
ROOT
ATOM      1  N   LIG    1      170.463 147.243 146.504  0.00  0.00    -0.199 N 
ENDROOT
BRANCH   1   2
ATOM      2  C   LIG    1      170.587 148.551 147.004  0.00  0.00    +0.053 A 
ATOM      3  C   LIG    1      169.679 149.093 147.918  0.00  0.00    +0.044 A 
ATOM      4  C   LIG    1      169.876 150.390 148.383  0.00  0.00    +0.043 A 
ATOM      5 CL   LIG    1      168.763 151.074 149.519  0.00  0.00    -0.083 Cl
ATOM      6  C   LIG    1      170.969 151.143 147.946  0.00  0.00    +0.020 A 
ATOM      7  C   LIG    1      171.866 150.594 147.033  0.00  0.00    +0.003 A 
ATOM      8  C   LIG    1      171.678 149.301 146.557  0.00  0.00    +0.025 A 
ENDBRANCH   1   2
BRANCH   1  10
ATOM      9  O   LIG    1      170.938 147.046 144.051  0.00  0.00    -0.150 OA
ATOM     10  S   LIG    1      169.853 147.197 144.954  0.00  0.00    +0.076 S 
ATOM     11  O   LIG    1      169.018 148.328 144.758  0.00  0.00    -0.150 OA
BRANCH  10  12
ATOM     12  C   LIG    1      168.845 145.696 144.895  0.00  0.00    +0.125 A 
ATOM     13  C   LIG    1      167.593 145.672 145.454  0.00  0.00    +0.123 A 
ATOM     14  N   LIG    1      166.845 144.493 145.383  0.00  0.00    -0.287 N 
ATOM     15  C   LIG    1      165.620 144.231 145.830  0.00  0.00    +0.229 A 
ATOM     16  N   LIG    1      165.305 143.006 145.537  0.00  0.00    -0.137 NA
ATOM     17  N   LIG    1      166.362 142.445 144.879  0.00  0.00    -0.130 NA
ATOM     18  C   LIG    1      167.295 143.366 144.794  0.00  0.00    +0.161 A 
ATOM     19  C   LIG    1      168.603 143.369 144.227  0.00  0.00    +0.050 A 
ATOM     20  C   LIG    1      169.363 144.503 144.277  0.00  0.00    +0.034 A 
ENDBRANCH  10  12
ENDBRANCH   1  10
BRANCH   1  21
ATOM     21  C   LIG    1      171.696 146.445 146.495  0.00  0.00    +0.166 C 
BRANCH  21  22
ATOM     22  C   LIG    1      171.356 145.162 147.232  0.00  0.00    -0.028 A 
ATOM     23  C   LIG    1      170.362 145.145 148.212  0.00  0.00    +0.005 A 
ATOM     24  C   LIG    1      170.052 143.962 148.877  0.00  0.00    +0.000 A 
ATOM     25  C   LIG    1      170.733 142.790 148.568  0.00  0.00    +0.000 A 
ATOM     26  C   LIG    1      171.724 142.800 147.591  0.00  0.00    +0.000 A 
ATOM     27  C   LIG    1      172.032 143.982 146.924  0.00  0.00    +0.005 A 
ENDBRANCH  21  22
ENDBRANCH   1  21
TORSDOF 5
