REMARK VINA RESULT:      -6.4     42.562     45.063
REMARK  Name = ZINC000193546412
REMARK                            x       y       z     vdW  Elec       q    Type
REMARK                         _______ _______ _______ _____ _____    ______ ____
ROOT
ATOM      1  C   LIG    1      180.602 151.421 149.481  0.00  0.00    +0.171 A 
ATOM      2  N   LIG    1      180.310 151.225 150.807  0.00  0.00    -0.204 NA
ATOM      3  C   LIG    1      179.030 151.196 150.940  0.00  0.00    +0.185 A 
ATOM      4  S   LIG    1      178.161 151.403 149.479  0.00  0.00    +0.050 S 
ATOM      5  N   LIG    1      179.585 151.534 148.664  0.00  0.00    -0.187 NA
ENDROOT
BRANCH   1   9
ATOM      6  C   LIG    1      184.638 151.668 148.082  0.00  0.00    +0.120 A 
ATOM      7  C   LIG    1      184.373 151.755 149.449  0.00  0.00    +0.046 A 
ATOM      8  C   LIG    1      183.059 151.673 149.898  0.00  0.00    +0.015 A 
ATOM      9  C   LIG    1      181.988 151.505 149.000  0.00  0.00    +0.020 A 
ATOM     10  C   LIG    1      182.289 151.421 147.627  0.00  0.00    +0.015 A 
ATOM     11  C   LIG    1      183.600 151.502 147.172  0.00  0.00    +0.046 A 
BRANCH   6  13
ATOM     12  C   LIG    1      186.294 151.386 146.226  0.00  0.00    +0.277 C 
ATOM     13  O   LIG    1      185.915 151.742 147.575  0.00  0.00    -0.495 OA
ENDBRANCH   6  13
ENDBRANCH   1   9
BRANCH   3  14
ATOM     14  N   LIG    1      178.495 151.008 152.216  0.00  0.00    -0.259 N 
ATOM     15  H   LIG    1      177.863 151.752 152.525  0.00  0.00    +0.157 HD
ATOM     16  C   LIG    1      178.703 149.972 153.087  0.00  0.00    +0.254 C 
ATOM     17  O   LIG    1      179.461 149.079 152.744  0.00  0.00    -0.270 OA
BRANCH  16  18
ATOM     18  C   LIG    1      178.032 149.970 154.379  0.00  0.00    +0.089 A 
ATOM     19  C   LIG    1      177.816 150.991 155.265  0.00  0.00    +0.182 A 
ATOM     20 BR   LIG    1      178.251 152.829 155.254  0.00  0.00    -0.008 Br
ATOM     21  O   LIG    1      177.148 150.528 156.342  0.00  0.00    -0.456 OA
ATOM     22  C   LIG    1      176.929 149.205 156.155  0.00  0.00    +0.197 A 
ATOM     23  C   LIG    1      177.452 148.829 154.970  0.00  0.00    +0.055 A 
ENDBRANCH  16  18
ENDBRANCH   3  14
TORSDOF 4
