REMARK VINA RESULT:      -7.4      3.095      8.229
REMARK  Name = ZINC000049483826
REMARK                            x       y       z     vdW  Elec       q    Type
REMARK                         _______ _______ _______ _____ _____    ______ ____
ROOT
ATOM      1  N   LIG    1      170.232 150.014 147.049  0.00  0.00    -0.175 NA
ATOM      2  C   LIG    1      171.567 149.446 147.266  0.00  0.00    +0.123 C 
ATOM      3  C   LIG    1      171.250 148.493 146.086  0.00  0.00    +0.109 C 
ATOM      4  C   LIG    1      169.755 148.852 146.291  0.00  0.00    +0.123 C 
ENDROOT
BRANCH   3   5
ATOM      5  C   LIG    1      171.553 147.049 146.404  0.00  0.00    +0.233 A 
ATOM      6  O   LIG    1      172.739 146.560 146.114  0.00  0.00    -0.337 OA
ATOM      7  N   LIG    1      172.761 145.297 146.482  0.00  0.00    -0.056 NA
ATOM      8  C   LIG    1      171.594 145.066 146.982  0.00  0.00    +0.209 A 
ATOM      9  N   LIG    1      170.808 146.172 146.942  0.00  0.00    -0.191 NA
BRANCH   8  10
ATOM     10  C   LIG    1      171.176 143.779 147.521  0.00  0.00    +0.060 A 
ATOM     11  S   LIG    1      172.325 142.609 148.098  0.00  0.00    -0.093 S 
ATOM     12  C   LIG    1      171.064 141.505 148.509  0.00  0.00    +0.046 A 
ATOM     13  C   LIG    1      169.830 142.014 148.217  0.00  0.00    +0.008 A 
ATOM     14  C   LIG    1      169.893 143.299 147.659  0.00  0.00    +0.019 A 
ENDBRANCH   8  10
ENDBRANCH   3   5
BRANCH   1  15
ATOM     15  S   LIG    1      170.008 151.561 146.544  0.00  0.00    +0.061 S 
ATOM     16  O   LIG    1      171.064 152.368 147.048  0.00  0.00    -0.153 OA
ATOM     17  O   LIG    1      169.851 151.539 145.130  0.00  0.00    -0.153 OA
BRANCH  15  20
ATOM     18  C   LIG    1      169.536 152.470 149.580  0.00  0.00    +0.046 C 
ATOM     19  C   LIG    1      168.331 152.456 148.652  0.00  0.00    -0.024 A 
ATOM     20  C   LIG    1      168.439 152.074 147.300  0.00  0.00    +0.110 A 
ATOM     21  C   LIG    1      167.291 152.091 146.501  0.00  0.00    +0.048 A 
ATOM     22  C   LIG    1      166.060 152.474 147.029  0.00  0.00    +0.043 A 
ATOM     23 CL   LIG    1      164.653 152.479 146.021  0.00  0.00    -0.083 Cl
ATOM     24  C   LIG    1      165.959 152.850 148.364  0.00  0.00    +0.020 A 
ATOM     25  C   LIG    1      167.092 152.841 149.168  0.00  0.00    +0.007 A 
ENDBRANCH  15  20
ENDBRANCH   1  15
TORSDOF 4
