REMARK VINA RESULT:      -8.3     14.268     17.300
REMARK  Name = ZINC000049420917
REMARK                            x       y       z     vdW  Elec       q    Type
REMARK                         _______ _______ _______ _____ _____    ______ ____
ROOT
ATOM      1  N   LIG    1      161.141 160.022 158.105  0.00  0.00    -0.205 N 
ATOM      2  C   LIG    1      161.122 158.920 157.216  0.00  0.00    +0.160 A 
ATOM      3  N   LIG    1      160.162 158.000 157.387  0.00  0.00    -0.238 NA
ATOM      4  C   LIG    1      160.119 156.945 156.575  0.00  0.00    +0.113 A 
ATOM      5  C   LIG    1      161.040 156.775 155.544  0.00  0.00    +0.022 A 
ATOM      6  C   LIG    1      162.036 157.724 155.349  0.00  0.00    +0.034 A 
ATOM      7  C   LIG    1      162.077 158.811 156.213  0.00  0.00    +0.149 A 
ATOM      8  S   LIG    1      163.204 160.161 156.108  0.00  0.00    +0.082 S 
ATOM      9  O   LIG    1      164.234 159.988 157.060  0.00  0.00    -0.150 OA
ATOM     10  O   LIG    1      163.604 160.328 154.758  0.00  0.00    -0.150 OA
ATOM     11  N   LIG    1      162.279 161.438 156.557  0.00  0.00    -0.150 N 
ATOM     12  C   LIG    1      161.751 161.248 157.796  0.00  0.00    +0.334 C 
ATOM     13  O   LIG    1      161.798 162.148 158.628  0.00  0.00    -0.250 OA
ENDROOT
BRANCH   1  18
ATOM     14  C   LIG    1      158.776 159.447 163.273  0.00  0.00    +0.044 C 
ATOM     15  C   LIG    1      159.401 159.590 161.901  0.00  0.00    -0.050 A 
ATOM     16  C   LIG    1      158.671 160.155 160.854  0.00  0.00    +0.005 A 
ATOM     17  C   LIG    1      159.242 160.301 159.595  0.00  0.00    +0.024 A 
ATOM     18  C   LIG    1      160.555 159.878 159.392  0.00  0.00    +0.044 A 
ATOM     19  C   LIG    1      161.299 159.317 160.428  0.00  0.00    +0.024 A 
ATOM     20  C   LIG    1      160.717 159.177 161.683  0.00  0.00    +0.005 A 
ENDBRANCH   1  18
BRANCH  11  21
ATOM     21  C   LIG    1      162.861 162.734 156.216  0.00  0.00    +0.171 C 
BRANCH  21  22
ATOM     22  C   LIG    1      161.991 163.229 155.079  0.00  0.00    -0.028 A 
ATOM     23  C   LIG    1      160.610 163.364 155.264  0.00  0.00    +0.008 A 
ATOM     24  C   LIG    1      159.805 163.823 154.225  0.00  0.00    +0.038 A 
ATOM     25  C   LIG    1      160.399 164.147 153.013  0.00  0.00    +0.123 A 
ATOM     26  F   LIG    1      159.619 164.594 152.000  0.00  0.00    -0.205 F 
ATOM     27  C   LIG    1      161.767 164.030 152.806  0.00  0.00    +0.038 A 
ATOM     28  C   LIG    1      162.565 163.568 153.849  0.00  0.00    +0.008 A 
ENDBRANCH  21  22
ENDBRANCH  11  21
TORSDOF 3
