REMARK VINA RESULT:      -8.1      4.616      7.957
REMARK  Name = ZINC000006083766
REMARK                            x       y       z     vdW  Elec       q    Type
REMARK                         _______ _______ _______ _____ _____    ______ ____
ROOT
ATOM      1  O   LIG    1      169.416 143.252 144.972  0.00  0.00    -0.468 OA
ENDROOT
BRANCH   1   2
ATOM      2  C   LIG    1      168.266 143.189 145.690  0.00  0.00    +0.227 A 
ATOM      3  C   LIG    1      168.315 142.903 147.065  0.00  0.00    +0.073 A 
ATOM      4  C   LIG    1      169.399 142.639 147.950  0.00  0.00    -0.023 A 
ATOM      5  C   LIG    1      170.865 142.611 147.539  0.00  0.00    +0.037 C 
ATOM      6  C   LIG    1      171.730 142.637 148.812  0.00  0.00    +0.005 C 
ATOM      7  C   LIG    1      171.227 141.633 149.864  0.00  0.00    +0.005 C 
ATOM      8  C   LIG    1      169.852 142.052 150.413  0.00  0.00    +0.043 C 
ATOM      9  C   LIG    1      168.977 142.373 149.220  0.00  0.00    -0.004 A 
ATOM     10  S   LIG    1      167.251 142.463 149.384  0.00  0.00    -0.073 S 
ATOM     11  C   LIG    1      167.088 142.847 147.706  0.00  0.00    +0.116 A 
ATOM     12  N   LIG    1      165.915 143.064 147.063  0.00  0.00    -0.228 NA
ATOM     13  C   LIG    1      165.974 143.330 145.781  0.00  0.00    +0.226 A 
ATOM     14  N   LIG    1      167.128 143.398 145.063  0.00  0.00    -0.201 NA
ENDBRANCH   1   2
BRANCH   1  15
ATOM     15  C   LIG    1      169.527 144.003 143.729  0.00  0.00    +0.310 C 
BRANCH  15  17
ATOM     16  O   LIG    1      171.713 144.337 142.869  0.00  0.00    -0.288 OA
ATOM     17  C   LIG    1      170.887 144.693 143.689  0.00  0.00    +0.200 C 
BRANCH  17  18
ATOM     18  C   LIG    1      171.178 145.804 144.595  0.00  0.00    +0.025 A 
ATOM     19  C   LIG    1      170.660 147.095 144.369  0.00  0.00    +0.061 A 
ATOM     20  C   LIG    1      170.957 148.123 145.252  0.00  0.00    +0.163 A 
ATOM     21  O   LIG    1      170.424 149.376 145.034  0.00  0.00    -0.485 OA
ATOM     22  C   LIG    1      170.443 150.330 146.140  0.00  0.00    +0.270 C 
ATOM     23  C   LIG    1      171.860 150.300 146.735  0.00  0.00    +0.270 C 
ATOM     24  O   LIG    1      172.097 148.937 147.201  0.00  0.00    -0.485 OA
ATOM     25  C   LIG    1      171.783 147.899 146.358  0.00  0.00    +0.162 A 
ATOM     26  C   LIG    1      172.296 146.632 146.603  0.00  0.00    +0.050 A 
ATOM     27  C   LIG    1      171.995 145.593 145.726  0.00  0.00    +0.015 A 
ENDBRANCH  17  18
ENDBRANCH  15  17
ENDBRANCH   1  15
TORSDOF 4
