MODEL 1
REMARK VINA RESULT:      -6.9      0.000      0.000
REMARK  Name = ZINC000049399659
REMARK                            x       y       z     vdW  Elec       q    Type
REMARK                         _______ _______ _______ _____ _____    ______ ____
ROOT
ATOM      1  C   LIG    1      165.100 160.350 157.904  0.00  0.00    +0.173 C 
ENDROOT
BRANCH   1   4
ATOM      2  N   LIG    1      164.867 161.892 156.002  0.00  0.00    -0.282 N 
ATOM      3  H   LIG    1      165.519 161.229 155.557  0.00  0.00    +0.155 HD
ATOM      4  C   LIG    1      164.593 161.653 157.326  0.00  0.00    +0.228 C 
ATOM      5  O   LIG    1      163.980 162.458 157.996  0.00  0.00    -0.275 OA
BRANCH   2   7
ATOM      6  C   LIG    1      163.315 162.804 154.410  0.00  0.00    +0.141 A 
ATOM      7  C   LIG    1      164.486 162.980 155.165  0.00  0.00    +0.077 A 
ATOM      8  C   LIG    1      165.198 164.179 155.086  0.00  0.00    +0.047 A 
ATOM      9  C   LIG    1      164.740 165.188 154.237  0.00  0.00    +0.043 A 
ATOM     10 CL   LIG    1      165.611 166.679 154.125  0.00  0.00    -0.083 Cl
ATOM     11  C   LIG    1      163.580 165.010 153.477  0.00  0.00    +0.024 A 
ATOM     12  C   LIG    1      162.864 163.818 153.564  0.00  0.00    +0.049 A 
BRANCH   6  14
ATOM     13  C   LIG    1      161.249 161.384 154.132  0.00  0.00    +0.277 C 
ATOM     14  O   LIG    1      162.622 161.598 154.535  0.00  0.00    -0.493 OA
ENDBRANCH   6  14
ENDBRANCH   2   7
ENDBRANCH   1   4
BRANCH   1  15
ATOM     15  S   LIG    1      163.618 159.387 158.390  0.00  0.00    -0.077 S 
BRANCH  15  16
ATOM     16  C   LIG    1      164.276 158.208 159.481  0.00  0.00    +0.190 A 
ATOM     17  N   LIG    1      165.205 158.615 160.348  0.00  0.00    -0.207 NA
ATOM     18  C   LIG    1      165.708 157.722 161.183  0.00  0.00    +0.126 A 
ATOM     19  C   LIG    1      165.281 156.398 161.163  0.00  0.00    +0.063 A 
ATOM     20  C   LIG    1      164.324 156.039 160.239  0.00  0.00    +0.117 A 
ATOM     21  N   LIG    1      163.828 156.940 159.402  0.00  0.00    -0.230 NA
BRANCH  18  22
ATOM     22  N   LIG    1      166.675 158.132 162.094  0.00  0.00    -0.315 N 
ATOM     23  C   LIG    1      167.039 159.561 162.058  0.00  0.00    +0.106 C 
ATOM     24  C   LIG    1      168.481 159.648 162.588  0.00  0.00    +0.019 C 
ATOM     25  C   LIG    1      168.491 159.105 164.028  0.00  0.00    +0.003 C 
ATOM     26  C   LIG    1      168.032 157.637 164.031  0.00  0.00    +0.019 C 
ATOM     27  C   LIG    1      166.601 157.574 163.464  0.00  0.00    +0.106 C 
ENDBRANCH  18  22
ENDBRANCH  15  16
ENDBRANCH   1  15
TORSDOF 6
ENDMDL
MODEL 2
REMARK VINA RESULT:      -6.9      3.657      9.584
REMARK  Name = ZINC000049399659
REMARK                            x       y       z     vdW  Elec       q    Type
REMARK                         _______ _______ _______ _____ _____    ______ ____
ROOT
ATOM      1  C   LIG    1      165.264 160.484 157.764  0.00  0.00    +0.173 C 
ENDROOT
BRANCH   1   4
ATOM      2  N   LIG    1      166.065 158.465 158.919  0.00  0.00    -0.282 N 
ATOM      3  H   LIG    1      166.718 158.431 158.122  0.00  0.00    +0.155 HD
ATOM      4  C   LIG    1      165.113 159.452 158.861  0.00  0.00    +0.228 C 
ATOM      5  O   LIG    1      164.191 159.484 159.649  0.00  0.00    -0.275 OA
BRANCH   2   7
ATOM      6  C   LIG    1      167.073 157.656 160.944  0.00  0.00    +0.141 A 
ATOM      7  C   LIG    1      166.231 157.400 159.850  0.00  0.00    +0.077 A 
ATOM      8  C   LIG    1      165.594 156.163 159.729  0.00  0.00    +0.047 A 
ATOM      9  C   LIG    1      165.818 155.184 160.698  0.00  0.00    +0.043 A 
ATOM     10 CL   LIG    1      165.040 153.644 160.562  0.00  0.00    -0.083 Cl
ATOM     11  C   LIG    1      166.665 155.433 161.782  0.00  0.00    +0.024 A 
ATOM     12  C   LIG    1      167.292 156.671 161.908  0.00  0.00    +0.049 A 
BRANCH   6  14
ATOM     13  C   LIG    1      168.470 159.371 162.156  0.00  0.00    +0.277 C 
ATOM     14  O   LIG    1      167.673 158.914 161.039  0.00  0.00    -0.493 OA
ENDBRANCH   6  14
ENDBRANCH   2   7
ENDBRANCH   1   4
BRANCH   1  15
ATOM     15  S   LIG    1      164.495 162.025 158.393  0.00  0.00    -0.077 S 
BRANCH  15  16
ATOM     16  C   LIG    1      163.056 162.147 157.430  0.00  0.00    +0.190 A 
ATOM     17  N   LIG    1      163.178 162.616 156.187  0.00  0.00    -0.207 NA
ATOM     18  C   LIG    1      162.086 162.708 155.448  0.00  0.00    +0.126 A 
ATOM     19  C   LIG    1      160.845 162.326 155.947  0.00  0.00    +0.063 A 
ATOM     20  C   LIG    1      160.784 161.856 157.241  0.00  0.00    +0.117 A 
ATOM     21  N   LIG    1      161.884 161.771 157.977  0.00  0.00    -0.230 NA
BRANCH  18  22
ATOM     22  N   LIG    1      162.199 163.193 154.150  0.00  0.00    -0.315 N 
ATOM     23  C   LIG    1      163.445 163.915 153.831  0.00  0.00    +0.106 C 
ATOM     24  C   LIG    1      163.096 164.887 152.689  0.00  0.00    +0.019 C 
ATOM     25  C   LIG    1      162.608 164.055 151.490  0.00  0.00    +0.003 C 
ATOM     26  C   LIG    1      161.353 163.259 151.887  0.00  0.00    +0.019 C 
ATOM     27  C   LIG    1      161.721 162.321 153.052  0.00  0.00    +0.106 C 
ENDBRANCH  18  22
ENDBRANCH  15  16
ENDBRANCH   1  15
TORSDOF 6
ENDMDL
MODEL 3
REMARK VINA RESULT:      -6.4     74.595     77.555
REMARK  Name = ZINC000049399659
REMARK                            x       y       z     vdW  Elec       q    Type
REMARK                         _______ _______ _______ _____ _____    ______ ____
ROOT
ATOM      1  C   LIG    1      182.528  85.742 155.086  0.00  0.00    +0.173 C 
ENDROOT
BRANCH   1   4
ATOM      2  N   LIG    1      184.635  86.357 153.975  0.00  0.00    -0.282 N 
ATOM      3  H   LIG    1      185.048  85.921 154.813  0.00  0.00    +0.155 HD
ATOM      4  C   LIG    1      183.266  86.460 153.977  0.00  0.00    +0.228 C 
ATOM      5  O   LIG    1      182.683  87.105 153.130  0.00  0.00    -0.275 OA
BRANCH   2   7
ATOM      6  C   LIG    1      186.098  88.145 153.316  0.00  0.00    +0.141 A 
ATOM      7  C   LIG    1      185.595  86.861 153.051  0.00  0.00    +0.077 A 
ATOM      8  C   LIG    1      186.052  86.143 151.945  0.00  0.00    +0.047 A 
ATOM      9  C   LIG    1      187.000  86.723 151.100  0.00  0.00    +0.043 A 
ATOM     10 CL   LIG    1      187.576  85.847 149.723  0.00  0.00    -0.083 Cl
ATOM     11  C   LIG    1      187.494  88.006 151.356  0.00  0.00    +0.024 A 
ATOM     12  C   LIG    1      187.045  88.718 152.466  0.00  0.00    +0.049 A 
BRANCH   6  14
ATOM     13  C   LIG    1      185.704  90.252 154.647  0.00  0.00    +0.277 C 
ATOM     14  O   LIG    1      185.630  88.821 154.445  0.00  0.00    -0.493 OA
ENDBRANCH   6  14
ENDBRANCH   2   7
ENDBRANCH   1   4
BRANCH   1  15
ATOM     15  S   LIG    1      183.013  86.568 156.650  0.00  0.00    -0.077 S 
BRANCH  15  16
ATOM     16  C   LIG    1      184.200  85.481 157.298  0.00  0.00    +0.190 A 
ATOM     17  N   LIG    1      185.449  85.579 156.838  0.00  0.00    -0.207 NA
ATOM     18  C   LIG    1      186.358  84.755 157.330  0.00  0.00    +0.126 A 
ATOM     19  C   LIG    1      186.027  83.814 158.300  0.00  0.00    +0.063 A 
ATOM     20  C   LIG    1      184.718  83.758 158.727  0.00  0.00    +0.117 A 
ATOM     21  N   LIG    1      183.812  84.585 158.225  0.00  0.00    -0.230 NA
BRANCH  18  22
ATOM     22  N   LIG    1      187.665  84.849 156.863  0.00  0.00    -0.315 N 
ATOM     23  C   LIG    1      188.456  83.604 156.890  0.00  0.00    +0.106 C 
ATOM     24  C   LIG    1      189.929  84.036 156.999  0.00  0.00    +0.019 C 
ATOM     25  C   LIG    1      190.267  84.888 155.763  0.00  0.00    +0.003 C 
ATOM     26  C   LIG    1      189.368  86.135 155.731  0.00  0.00    +0.019 C 
ATOM     27  C   LIG    1      187.900  85.674 155.657  0.00  0.00    +0.106 C 
ENDBRANCH  18  22
ENDBRANCH  15  16
ENDBRANCH   1  15
TORSDOF 6
ENDMDL
MODEL 4
REMARK VINA RESULT:      -6.3      1.593      2.086
REMARK  Name = ZINC000049399659
REMARK                            x       y       z     vdW  Elec       q    Type
REMARK                         _______ _______ _______ _____ _____    ______ ____
ROOT
ATOM      1  C   LIG    1      164.991 160.597 157.865  0.00  0.00    +0.173 C 
ENDROOT
BRANCH   1   4
ATOM      2  N   LIG    1      163.441 161.536 156.202  0.00  0.00    -0.282 N 
ATOM      3  H   LIG    1      163.173 160.547 156.090  0.00  0.00    +0.155 HD
ATOM      4  C   LIG    1      164.496 161.771 157.048  0.00  0.00    +0.228 C 
ATOM      5  O   LIG    1      165.007 162.869 157.126  0.00  0.00    -0.275 OA
BRANCH   2   7
ATOM      6  C   LIG    1      161.551 162.988 155.895  0.00  0.00    +0.141 A 
ATOM      7  C   LIG    1      162.722 162.430 155.357  0.00  0.00    +0.077 A 
ATOM      8  C   LIG    1      163.136 162.774 154.068  0.00  0.00    +0.047 A 
ATOM      9  C   LIG    1      162.363 163.663 153.320  0.00  0.00    +0.043 A 
ATOM     10 CL   LIG    1      162.859 164.098 151.720  0.00  0.00    -0.083 Cl
ATOM     11  C   LIG    1      161.191 164.212 153.850  0.00  0.00    +0.024 A 
ATOM     12  C   LIG    1      160.784 163.876 155.139  0.00  0.00    +0.049 A 
BRANCH   6  14
ATOM     13  C   LIG    1      160.245 161.589 157.538  0.00  0.00    +0.277 C 
ATOM     14  O   LIG    1      161.185 162.634 157.195  0.00  0.00    -0.493 OA
ENDBRANCH   6  14
ENDBRANCH   2   7
ENDBRANCH   1   4
BRANCH   1  15
ATOM     15  S   LIG    1      163.541 159.509 158.141  0.00  0.00    -0.077 S 
BRANCH  15  16
ATOM     16  C   LIG    1      164.174 158.305 159.220  0.00  0.00    +0.190 A 
ATOM     17  N   LIG    1      165.076 158.694 160.123  0.00  0.00    -0.207 NA
ATOM     18  C   LIG    1      165.559 157.782 160.950  0.00  0.00    +0.126 A 
ATOM     19  C   LIG    1      165.139 156.458 160.885  0.00  0.00    +0.063 A 
ATOM     20  C   LIG    1      164.211 156.119 159.925  0.00  0.00    +0.117 A 
ATOM     21  N   LIG    1      163.735 157.038 159.097  0.00  0.00    -0.230 NA
BRANCH  18  22
ATOM     22  N   LIG    1      166.497 158.174 161.898  0.00  0.00    -0.315 N 
ATOM     23  C   LIG    1      166.824 157.180 162.939  0.00  0.00    +0.106 C 
ATOM     24  C   LIG    1      167.286 157.985 164.168  0.00  0.00    +0.019 C 
ATOM     25  C   LIG    1      168.528 158.798 163.762  0.00  0.00    +0.003 C 
ATOM     26  C   LIG    1      168.164 159.766 162.623  0.00  0.00    +0.019 C 
ATOM     27  C   LIG    1      167.672 158.938 161.420  0.00  0.00    +0.106 C 
ENDBRANCH  18  22
ENDBRANCH  15  16
ENDBRANCH   1  15
TORSDOF 6
ENDMDL
MODEL 5
REMARK VINA RESULT:      -6.2     74.433     77.299
REMARK  Name = ZINC000049399659
REMARK                            x       y       z     vdW  Elec       q    Type
REMARK                         _______ _______ _______ _____ _____    ______ ____
ROOT
ATOM      1  C   LIG    1      194.855  87.995 158.433  0.00  0.00    +0.173 C 
ENDROOT
BRANCH   1   4
ATOM      2  N   LIG    1      196.125  90.031 157.891  0.00  0.00    -0.282 N 
ATOM      3  H   LIG    1      195.763  89.844 156.944  0.00  0.00    +0.155 HD
ATOM      4  C   LIG    1      195.834  89.078 158.834  0.00  0.00    +0.228 C 
ATOM      5  O   LIG    1      196.348  89.103 159.934  0.00  0.00    -0.275 OA
BRANCH   2   7
ATOM      6  C   LIG    1      196.305  92.386 158.334  0.00  0.00    +0.141 A 
ATOM      7  C   LIG    1      196.949  91.190 157.977  0.00  0.00    +0.077 A 
ATOM      8  C   LIG    1      198.327  91.177 157.748  0.00  0.00    +0.047 A 
ATOM      9  C   LIG    1      199.048  92.366 157.862  0.00  0.00    +0.043 A 
ATOM     10 CL   LIG    1      200.755  92.368 157.579  0.00  0.00    -0.083 Cl
ATOM     11  C   LIG    1      198.406  93.559 158.207  0.00  0.00    +0.024 A 
ATOM     12  C   LIG    1      197.034  93.571 158.445  0.00  0.00    +0.049 A 
BRANCH   6  14
ATOM     13  C   LIG    1      193.922  92.944 157.723  0.00  0.00    +0.277 C 
ATOM     14  O   LIG    1      194.930  92.351 158.575  0.00  0.00    -0.493 OA
ENDBRANCH   6  14
ENDBRANCH   2   7
ENDBRANCH   1   4
BRANCH   1  15
ATOM     15  S   LIG    1      193.871  88.676 157.043  0.00  0.00    -0.077 S 
BRANCH  15  16
ATOM     16  C   LIG    1      192.242  88.509 157.619  0.00  0.00    +0.190 A 
ATOM     17  N   LIG    1      191.615  87.356 157.383  0.00  0.00    -0.207 NA
ATOM     18  C   LIG    1      190.376  87.222 157.822  0.00  0.00    +0.126 A 
ATOM     19  C   LIG    1      189.742  88.250 158.512  0.00  0.00    +0.063 A 
ATOM     20  C   LIG    1      190.440  89.420 158.717  0.00  0.00    +0.117 A 
ATOM     21  N   LIG    1      191.682  89.547 158.270  0.00  0.00    -0.230 NA
BRANCH  18  22
ATOM     22  N   LIG    1      189.711  86.023 157.586  0.00  0.00    -0.315 N 
ATOM     23  C   LIG    1      190.040  85.335 156.323  0.00  0.00    +0.106 C 
ATOM     24  C   LIG    1      188.801  84.496 155.959  0.00  0.00    +0.019 C 
ATOM     25  C   LIG    1      188.557  83.491 157.098  0.00  0.00    +0.003 C 
ATOM     26  C   LIG    1      188.294  84.248 158.410  0.00  0.00    +0.019 C 
ATOM     27  C   LIG    1      189.534  85.104 158.733  0.00  0.00    +0.106 C 
ENDBRANCH  18  22
ENDBRANCH  15  16
ENDBRANCH   1  15
TORSDOF 6
ENDMDL
MODEL 6
REMARK VINA RESULT:      -6.1     52.433     55.235
REMARK  Name = ZINC000049399659
REMARK                            x       y       z     vdW  Elec       q    Type
REMARK                         _______ _______ _______ _____ _____    ______ ____
ROOT
ATOM      1  C   LIG    1      196.988 116.920 153.470  0.00  0.00    +0.173 C 
ENDROOT
BRANCH   1   4
ATOM      2  N   LIG    1      197.559 114.895 154.744  0.00  0.00    -0.282 N 
ATOM      3  H   LIG    1      198.231 114.762 153.974  0.00  0.00    +0.155 HD
ATOM      4  C   LIG    1      196.705 115.961 154.606  0.00  0.00    +0.228 C 
ATOM      5  O   LIG    1      195.765 116.115 155.358  0.00  0.00    -0.275 OA
BRANCH   2   7
ATOM      6  C   LIG    1      198.379 114.118 156.865  0.00  0.00    +0.141 A 
ATOM      7  C   LIG    1      197.595 113.865 155.728  0.00  0.00    +0.077 A 
ATOM      8  C   LIG    1      196.887 112.666 155.617  0.00  0.00    +0.047 A 
ATOM      9  C   LIG    1      196.984 111.721 156.638  0.00  0.00    +0.043 A 
ATOM     10 CL   LIG    1      196.116 110.228 156.515  0.00  0.00    -0.083 Cl
ATOM     11  C   LIG    1      197.773 111.967 157.766  0.00  0.00    +0.024 A 
ATOM     12  C   LIG    1      198.471 113.167 157.882  0.00  0.00    +0.049 A 
BRANCH   6  14
ATOM     13  C   LIG    1      198.737 116.401 157.877  0.00  0.00    +0.277 C 
ATOM     14  O   LIG    1      199.053 115.339 156.947  0.00  0.00    -0.493 OA
ENDBRANCH   6  14
ENDBRANCH   2   7
ENDBRANCH   1   4
BRANCH   1  15
ATOM     15  S   LIG    1      195.358 117.427 152.802  0.00  0.00    -0.077 S 
BRANCH  15  16
ATOM     16  C   LIG    1      195.786 118.670 151.669  0.00  0.00    +0.190 A 
ATOM     17  N   LIG    1      195.387 118.522 150.405  0.00  0.00    -0.207 NA
ATOM     18  C   LIG    1      195.708 119.467 149.538  0.00  0.00    +0.126 A 
ATOM     19  C   LIG    1      196.437 120.585 149.929  0.00  0.00    +0.063 A 
ATOM     20  C   LIG    1      196.826 120.676 151.248  0.00  0.00    +0.117 A 
ATOM     21  N   LIG    1      196.504 119.721 152.110  0.00  0.00    -0.230 NA
BRANCH  18  22
ATOM     22  N   LIG    1      195.296 119.327 148.217  0.00  0.00    -0.315 N 
ATOM     23  C   LIG    1      196.239 118.646 147.310  0.00  0.00    +0.106 C 
ATOM     24  C   LIG    1      195.936 119.181 145.898  0.00  0.00    +0.019 C 
ATOM     25  C   LIG    1      194.478 118.826 145.559  0.00  0.00    +0.003 C 
ATOM     26  C   LIG    1      193.533 119.493 146.573  0.00  0.00    +0.019 C 
ATOM     27  C   LIG    1      193.880 118.967 147.979  0.00  0.00    +0.106 C 
ENDBRANCH  18  22
ENDBRANCH  15  16
ENDBRANCH   1  15
TORSDOF 6
ENDMDL
MODEL 7
REMARK VINA RESULT:      -6.1     86.651     89.540
REMARK  Name = ZINC000049399659
REMARK                            x       y       z     vdW  Elec       q    Type
REMARK                         _______ _______ _______ _____ _____    ______ ____
ROOT
ATOM      1  C   LIG    1      204.093  78.776 153.314  0.00  0.00    +0.173 C 
ENDROOT
BRANCH   1   4
ATOM      2  N   LIG    1      205.419  79.183 155.345  0.00  0.00    -0.282 N 
ATOM      3  H   LIG    1      206.200  79.191 154.671  0.00  0.00    +0.155 HD
ATOM      4  C   LIG    1      204.191  78.865 154.821  0.00  0.00    +0.228 C 
ATOM      5  O   LIG    1      203.235  78.658 155.540  0.00  0.00    -0.275 OA
BRANCH   2   7
ATOM      6  C   LIG    1      206.341  78.280 157.372  0.00  0.00    +0.141 A 
ATOM      7  C   LIG    1      205.817  79.394 156.696  0.00  0.00    +0.077 A 
ATOM      8  C   LIG    1      205.729  80.629 157.343  0.00  0.00    +0.047 A 
ATOM      9  C   LIG    1      206.151  80.736 158.669  0.00  0.00    +0.043 A 
ATOM     10 CL   LIG    1      206.045  82.257 159.486  0.00  0.00    -0.083 Cl
ATOM     11  C   LIG    1      206.662  79.625 159.346  0.00  0.00    +0.024 A 
ATOM     12  C   LIG    1      206.760  78.395 158.698  0.00  0.00    +0.049 A 
BRANCH   6  14
ATOM     13  C   LIG    1      205.594  75.914 156.918  0.00  0.00    +0.277 C 
ATOM     14  O   LIG    1      206.432  77.070 156.682  0.00  0.00    -0.493 OA
ENDBRANCH   6  14
ENDBRANCH   2   7
ENDBRANCH   1   4
BRANCH   1  15
ATOM     15  S   LIG    1      202.308  78.647 152.917  0.00  0.00    -0.077 S 
BRANCH  15  16
ATOM     16  C   LIG    1      201.890  80.287 152.529  0.00  0.00    +0.190 A 
ATOM     17  N   LIG    1      202.244  80.751 151.330  0.00  0.00    -0.207 NA
ATOM     18  C   LIG    1      201.925  81.999 151.029  0.00  0.00    +0.126 A 
ATOM     19  C   LIG    1      201.239  82.804 151.932  0.00  0.00    +0.063 A 
ATOM     20  C   LIG    1      200.908  82.268 153.157  0.00  0.00    +0.117 A 
ATOM     21  N   LIG    1      201.235  81.017 153.453  0.00  0.00    -0.230 NA
BRANCH  18  22
ATOM     22  N   LIG    1      202.286  82.495 149.781  0.00  0.00    -0.315 N 
ATOM     23  C   LIG    1      201.991  83.920 149.538  0.00  0.00    +0.106 C 
ATOM     24  C   LIG    1      201.824  84.068 148.014  0.00  0.00    +0.019 C 
ATOM     25  C   LIG    1      203.147  83.649 147.350  0.00  0.00    +0.003 C 
ATOM     26  C   LIG    1      203.456  82.182 147.691  0.00  0.00    +0.019 C 
ATOM     27  C   LIG    1      203.584  82.055 149.221  0.00  0.00    +0.106 C 
ENDBRANCH  18  22
ENDBRANCH  15  16
ENDBRANCH   1  15
TORSDOF 6
ENDMDL
MODEL 8
REMARK VINA RESULT:      -6.0     25.084     26.865
REMARK  Name = ZINC000049399659
REMARK                            x       y       z     vdW  Elec       q    Type
REMARK                         _______ _______ _______ _____ _____    ______ ____
ROOT
ATOM      1  C   LIG    1      179.867 178.957 168.620  0.00  0.00    +0.173 C 
ENDROOT
BRANCH   1   4
ATOM      2  N   LIG    1      180.590 180.419 166.779  0.00  0.00    -0.282 N 
ATOM      3  H   LIG    1      181.094 180.901 167.539  0.00  0.00    +0.155 HD
ATOM      4  C   LIG    1      179.770 179.391 167.174  0.00  0.00    +0.228 C 
ATOM      5  O   LIG    1      179.001 178.866 166.396  0.00  0.00    -0.275 OA
BRANCH   2   7
ATOM      6  C   LIG    1      180.732 182.413 165.446  0.00  0.00    +0.141 A 
ATOM      7  C   LIG    1      180.773 181.010 165.496  0.00  0.00    +0.077 A 
ATOM      8  C   LIG    1      181.005 180.273 164.333  0.00  0.00    +0.047 A 
ATOM      9  C   LIG    1      181.177 180.947 163.123  0.00  0.00    +0.043 A 
ATOM     10 CL   LIG    1      181.462 180.049 161.671  0.00  0.00    -0.083 Cl
ATOM     11  C   LIG    1      181.126 182.343 163.070  0.00  0.00    +0.024 A 
ATOM     12  C   LIG    1      180.905 183.079 164.232  0.00  0.00    +0.049 A 
BRANCH   6  14
ATOM     13  C   LIG    1      179.972 184.448 166.728  0.00  0.00    +0.277 C 
ATOM     14  O   LIG    1      180.520 183.113 166.636  0.00  0.00    -0.493 OA
ENDBRANCH   6  14
ENDBRANCH   2   7
ENDBRANCH   1   4
BRANCH   1  15
ATOM     15  S   LIG    1      178.569 177.685 168.867  0.00  0.00    -0.077 S 
BRANCH  15  16
ATOM     16  C   LIG    1      177.262 178.607 169.541  0.00  0.00    +0.190 A 
ATOM     17  N   LIG    1      177.440 179.921 169.687  0.00  0.00    -0.207 NA
ATOM     18  C   LIG    1      176.447 180.628 170.198  0.00  0.00    +0.126 A 
ATOM     19  C   LIG    1      175.250 180.025 170.570  0.00  0.00    +0.063 A 
ATOM     20  C   LIG    1      175.132 178.662 170.402  0.00  0.00    +0.117 A 
ATOM     21  N   LIG    1      176.135 177.959 169.893  0.00  0.00    -0.230 NA
BRANCH  18  22
ATOM     22  N   LIG    1      176.616 182.000 170.352  0.00  0.00    -0.315 N 
ATOM     23  C   LIG    1      176.026 182.596 171.566  0.00  0.00    +0.106 C 
ATOM     24  C   LIG    1      175.732 184.067 171.220  0.00  0.00    +0.019 C 
ATOM     25  C   LIG    1      177.065 184.744 170.856  0.00  0.00    +0.003 C 
ATOM     26  C   LIG    1      177.685 184.045 169.635  0.00  0.00    +0.019 C 
ATOM     27  C   LIG    1      177.936 182.568 169.996  0.00  0.00    +0.106 C 
ENDBRANCH  18  22
ENDBRANCH  15  16
ENDBRANCH   1  15
TORSDOF 6
ENDMDL
MODEL 9
REMARK VINA RESULT:      -6.0     43.483     44.884
REMARK  Name = ZINC000049399659
REMARK                            x       y       z     vdW  Elec       q    Type
REMARK                         _______ _______ _______ _____ _____    ______ ____
ROOT
ATOM      1  C   LIG    1      184.952 131.057 130.107  0.00  0.00    +0.173 C 
ENDROOT
BRANCH   1   4
ATOM      2  N   LIG    1      185.821 129.237 131.516  0.00  0.00    -0.282 N 
ATOM      3  H   LIG    1      186.308 130.014 131.986  0.00  0.00    +0.155 HD
ATOM      4  C   LIG    1      185.109 129.579 130.393  0.00  0.00    +0.228 C 
ATOM      5  O   LIG    1      184.639 128.730 129.664  0.00  0.00    -0.275 OA
BRANCH   2   7
ATOM      6  C   LIG    1      185.163 127.479 133.015  0.00  0.00    +0.141 A 
ATOM      7  C   LIG    1      186.093 127.957 132.079  0.00  0.00    +0.077 A 
ATOM      8  C   LIG    1      187.200 127.181 131.730  0.00  0.00    +0.047 A 
ATOM      9  C   LIG    1      187.377 125.936 132.336  0.00  0.00    +0.043 A 
ATOM     10 CL   LIG    1      188.745 124.962 131.918  0.00  0.00    -0.083 Cl
ATOM     11  C   LIG    1      186.457 125.463 133.277  0.00  0.00    +0.024 A 
ATOM     12  C   LIG    1      185.348 126.233 133.617  0.00  0.00    +0.049 A 
BRANCH   6  14
ATOM     13  C   LIG    1      182.677 127.893 133.125  0.00  0.00    +0.277 C 
ATOM     14  O   LIG    1      184.058 128.278 133.319  0.00  0.00    -0.493 OA
ENDBRANCH   6  14
ENDBRANCH   2   7
ENDBRANCH   1   4
BRANCH   1  15
ATOM     15  S   LIG    1      184.086 131.775 131.555  0.00  0.00    -0.077 S 
BRANCH  15  16
ATOM     16  C   LIG    1      185.294 132.822 132.234  0.00  0.00    +0.190 A 
ATOM     17  N   LIG    1      185.054 134.134 132.224  0.00  0.00    -0.207 NA
ATOM     18  C   LIG    1      185.969 134.936 132.743  0.00  0.00    +0.126 A 
ATOM     19  C   LIG    1      187.146 134.429 133.284  0.00  0.00    +0.063 A 
ATOM     20  C   LIG    1      187.337 133.065 133.257  0.00  0.00    +0.117 A 
ATOM     21  N   LIG    1      186.416 132.268 132.731  0.00  0.00    -0.230 NA
BRANCH  18  22
ATOM     22  N   LIG    1      185.731 136.306 132.743  0.00  0.00    -0.315 N 
ATOM     23  C   LIG    1      186.808 137.153 132.194  0.00  0.00    +0.106 C 
ATOM     24  C   LIG    1      186.662 138.525 132.877  0.00  0.00    +0.019 C 
ATOM     25  C   LIG    1      185.273 139.086 132.524  0.00  0.00    +0.003 C 
ATOM     26  C   LIG    1      184.183 138.135 133.046  0.00  0.00    +0.019 C 
ATOM     27  C   LIG    1      184.372 136.762 132.374  0.00  0.00    +0.106 C 
ENDBRANCH  18  22
ENDBRANCH  15  16
ENDBRANCH   1  15
TORSDOF 6
ENDMDL
