REMARK VINA RESULT:      -6.1     86.651     89.540
REMARK  Name = ZINC000049399659
REMARK                            x       y       z     vdW  Elec       q    Type
REMARK                         _______ _______ _______ _____ _____    ______ ____
ROOT
ATOM      1  C   LIG    1      204.093  78.776 153.314  0.00  0.00    +0.173 C 
ENDROOT
BRANCH   1   4
ATOM      2  N   LIG    1      205.419  79.183 155.345  0.00  0.00    -0.282 N 
ATOM      3  H   LIG    1      206.200  79.191 154.671  0.00  0.00    +0.155 HD
ATOM      4  C   LIG    1      204.191  78.865 154.821  0.00  0.00    +0.228 C 
ATOM      5  O   LIG    1      203.235  78.658 155.540  0.00  0.00    -0.275 OA
BRANCH   2   7
ATOM      6  C   LIG    1      206.341  78.280 157.372  0.00  0.00    +0.141 A 
ATOM      7  C   LIG    1      205.817  79.394 156.696  0.00  0.00    +0.077 A 
ATOM      8  C   LIG    1      205.729  80.629 157.343  0.00  0.00    +0.047 A 
ATOM      9  C   LIG    1      206.151  80.736 158.669  0.00  0.00    +0.043 A 
ATOM     10 CL   LIG    1      206.045  82.257 159.486  0.00  0.00    -0.083 Cl
ATOM     11  C   LIG    1      206.662  79.625 159.346  0.00  0.00    +0.024 A 
ATOM     12  C   LIG    1      206.760  78.395 158.698  0.00  0.00    +0.049 A 
BRANCH   6  14
ATOM     13  C   LIG    1      205.594  75.914 156.918  0.00  0.00    +0.277 C 
ATOM     14  O   LIG    1      206.432  77.070 156.682  0.00  0.00    -0.493 OA
ENDBRANCH   6  14
ENDBRANCH   2   7
ENDBRANCH   1   4
BRANCH   1  15
ATOM     15  S   LIG    1      202.308  78.647 152.917  0.00  0.00    -0.077 S 
BRANCH  15  16
ATOM     16  C   LIG    1      201.890  80.287 152.529  0.00  0.00    +0.190 A 
ATOM     17  N   LIG    1      202.244  80.751 151.330  0.00  0.00    -0.207 NA
ATOM     18  C   LIG    1      201.925  81.999 151.029  0.00  0.00    +0.126 A 
ATOM     19  C   LIG    1      201.239  82.804 151.932  0.00  0.00    +0.063 A 
ATOM     20  C   LIG    1      200.908  82.268 153.157  0.00  0.00    +0.117 A 
ATOM     21  N   LIG    1      201.235  81.017 153.453  0.00  0.00    -0.230 NA
BRANCH  18  22
ATOM     22  N   LIG    1      202.286  82.495 149.781  0.00  0.00    -0.315 N 
ATOM     23  C   LIG    1      201.991  83.920 149.538  0.00  0.00    +0.106 C 
ATOM     24  C   LIG    1      201.824  84.068 148.014  0.00  0.00    +0.019 C 
ATOM     25  C   LIG    1      203.147  83.649 147.350  0.00  0.00    +0.003 C 
ATOM     26  C   LIG    1      203.456  82.182 147.691  0.00  0.00    +0.019 C 
ATOM     27  C   LIG    1      203.584  82.055 149.221  0.00  0.00    +0.106 C 
ENDBRANCH  18  22
ENDBRANCH  15  16
ENDBRANCH   1  15
TORSDOF 6
