REMARK VINA RESULT:      -5.6     66.847     69.897
REMARK  Name = 
REMARK                            x       y       z     vdW  Elec       q    Type
REMARK                         _______ _______ _______ _____ _____    ______ ____
ROOT
ATOM      1  C   LIG    1      186.201  85.287 157.206  0.00  0.00    -0.010 A 
ATOM      2  C   LIG    1      187.517  84.840 157.249  0.00  0.00    -0.007 A 
ATOM      3  C   LIG    1      187.905  83.833 158.084  0.00  0.00    -0.010 A 
ATOM      4  C   LIG    1      186.973  83.267 158.881  0.00  0.00    -0.006 A 
ATOM      5  C   LIG    1      185.613  83.657 158.899  0.00  0.00    +0.002 A 
ATOM      6  C   LIG    1      185.294  84.671 158.037  0.00  0.00    -0.006 A 
ENDROOT
BRANCH   1   8
ATOM      7  C   LIG    1      184.462  86.293 155.715  0.00  0.00    +0.020 C 
ATOM      8  C   LIG    1      185.868  86.377 156.264  0.00  0.00    +0.098 C 
ATOM      9  C   LIG    1      186.894  86.513 155.141  0.00  0.00    +0.020 C 
BRANCH   8  10
ATOM     10  C   LIG    1      185.966  87.684 156.977  0.00  0.00    +0.075 C 
ATOM     11  N   LIG    1      186.062  88.714 157.540  0.00  0.00    -0.196 NA
ENDBRANCH   8  10
ENDBRANCH   1   8
BRANCH   3  12
ATOM     12  C   LIG    1      189.329  83.359 158.159  0.00  0.00    +0.098 C 
ATOM     13  C   LIG    1      190.235  84.348 157.516  0.00  0.00    +0.020 C 
ATOM     14  C   LIG    1      189.368  81.974 157.534  0.00  0.00    +0.020 C 
BRANCH  12  15
ATOM     15  C   LIG    1      189.717  83.239 159.562  0.00  0.00    +0.075 C 
ATOM     16  N   LIG    1      190.032  83.144 160.695  0.00  0.00    -0.196 NA
ENDBRANCH  12  15
ENDBRANCH   3  12
BRANCH   5  17
ATOM     17  C   LIG    1      184.798  82.904 159.810  0.00  0.00    +0.156 C 
BRANCH  17  18
ATOM     18  N   LIG    1      183.903  83.558 160.685  0.00  0.00    -0.226 N 
ATOM     19  N   LIG    1      182.718  84.049 160.357  0.00  0.00    -0.145 NA
ATOM     20  C   LIG    1      182.166  84.642 161.425  0.00  0.00    +0.221 A 
ATOM     21  N   LIG    1      183.025  84.525 162.467  0.00  0.00    -0.201 NA
ATOM     22  C   LIG    1      184.090  83.854 161.994  0.00  0.00    +0.198 A 
ENDBRANCH  17  18
ENDBRANCH   5  17
TORSDOF 6
