REMARK VINA RESULT:      -7.1     72.272     74.711
REMARK  Name = 
REMARK                            x       y       z     vdW  Elec       q    Type
REMARK                         _______ _______ _______ _____ _____    ______ ____
ROOT
ATOM      1  C   LIG    1      198.798  83.219 166.324  0.00  0.00    +0.035 A 
ATOM      2  C   LIG    1      198.109  83.239 165.134  0.00  0.00    +0.007 A 
ATOM      3  C   LIG    1      198.800  83.208 163.926  0.00  0.00    +0.051 A 
ATOM      4  C   LIG    1      200.175  83.156 163.863  0.00  0.00    +0.086 A 
ATOM      5  N   LIG    1      200.858  83.126 162.695  0.00  0.00    -0.224 NA
ATOM      6  C   LIG    1      200.146  83.146 161.562  0.00  0.00    +0.200 A 
ATOM      7  N   LIG    1      198.796  83.197 161.593  0.00  0.00    -0.207 NA
ATOM      8  C   LIG    1      200.846  83.136 165.080  0.00  0.00    +0.019 A 
ATOM      9  C   LIG    1      198.097  83.228 162.721  0.00  0.00    +0.155 A 
ATOM     10  C   LIG    1      200.174  83.168 166.280  0.00  0.00    +0.005 A 
ENDROOT
BRANCH   1  13
ATOM     11  C   LIG    1      197.343  82.808 169.579  0.00  0.00    +0.140 A 
ATOM     12  O   LIG    1      198.167  82.500 168.618  0.00  0.00    -0.456 OA
ATOM     13  C   LIG    1      198.061  83.252 167.580  0.00  0.00    +0.145 A 
ATOM     14  C   LIG    1      197.057  84.177 167.855  0.00  0.00    +0.040 A 
ATOM     15  C   LIG    1      196.607  83.892 169.120  0.00  0.00    +0.038 A 
BRANCH  11  16
ATOM     16  C   LIG    1      197.183  82.158 170.923  0.00  0.00    +0.153 C 
BRANCH  16  17
ATOM     17  N   LIG    1      196.469  80.895 170.772  0.00  0.00    -0.208 NA
BRANCH  17  18
ATOM     18  C   LIG    1      197.449  79.841 170.632  0.00  0.00    +0.114 C 
BRANCH  18  19
ATOM     19  C   LIG    1      196.937  78.684 169.822  0.00  0.00    +0.170 C 
BRANCH  19  21
ATOM     20  C   LIG    1      199.283  79.235 168.231  0.00  0.00    +0.176 C 
ATOM     21  S   LIG    1      197.619  78.666 168.182  0.00  0.00    -0.007 S 
ATOM     22  O   LIG    1      196.824  79.646 167.354  0.00  0.00    -0.173 OA
ATOM     23  O   LIG    1      197.561  77.287 167.576  0.00  0.00    -0.173 OA
ENDBRANCH  19  21
ENDBRANCH  18  19
ENDBRANCH  17  18
ENDBRANCH  16  17
ENDBRANCH  11  16
ENDBRANCH   1  13
BRANCH   9  24
ATOM     24  N   LIG    1      196.695  83.283 162.802  0.00  0.00    -0.194 NA
BRANCH  24  25
ATOM     25  C   LIG    1      195.889  82.306 162.219  0.00  0.00    +0.073 A 
ATOM     26  C   LIG    1      194.509  82.465 162.064  0.00  0.00    +0.031 A 
ATOM     27  C   LIG    1      193.776  81.474 161.484  0.00  0.00    +0.093 A 
ATOM     28 CL   LIG    1      192.021  81.616 161.269  0.00  0.00    -0.079 Cl
ATOM     29  C   LIG    1      194.347  80.298 161.036  0.00  0.00    +0.150 A 
ATOM     30  C   LIG    1      195.706  80.130 161.184  0.00  0.00    +0.039 A 
ATOM     31  C   LIG    1      196.442  81.129 161.767  0.00  0.00    +0.020 A 
BRANCH  29  32
ATOM     32  O   LIG    1      193.553  79.300 160.443  0.00  0.00    -0.470 OA
BRANCH  32  33
ATOM     33  C   LIG    1      194.061  77.971 160.451  0.00  0.00    +0.232 C 
BRANCH  33  34
ATOM     34  C   LIG    1      193.304  77.223 161.480  0.00  0.00    +0.023 A 
ATOM     35  C   LIG    1      193.845  76.154 162.163  0.00  0.00    +0.029 A 
ATOM     36  C   LIG    1      193.077  75.491 163.126  0.00  0.00    +0.140 A 
ATOM     37  F   LIG    1      193.565  74.435 163.826  0.00  0.00    -0.204 F 
ATOM     38  C   LIG    1      191.791  75.897 163.393  0.00  0.00    +0.030 A 
ATOM     39  C   LIG    1      191.253  76.952 162.721  0.00  0.00    +0.002 A 
ATOM     40  C   LIG    1      192.015  77.606 161.769  0.00  0.00    -0.001 A 
ENDBRANCH  33  34
ENDBRANCH  32  33
ENDBRANCH  29  32
ENDBRANCH  24  25
ENDBRANCH   9  24
TORSDOF 11
