REMARK VINA RESULT:      -7.7     49.082     52.664
REMARK  Name = ZINC000049410085
REMARK                            x       y       z     vdW  Elec       q    Type
REMARK                         _______ _______ _______ _____ _____    ______ ____
ROOT
ATOM      1  C   LIG    1      162.853 107.438 172.305  0.00  0.00    +0.247 C 
ATOM      2  N   LIG    1      162.605 106.080 172.489  0.00  0.00    -0.297 N 
ATOM      3  C   LIG    1      162.241 105.530 173.804  0.00  0.00    +0.112 C 
ATOM      4  C   LIG    1      163.564 105.022 174.401  0.00  0.00    +0.064 C 
ATOM      5  C   LIG    1      164.185 103.983 173.447  0.00  0.00    +0.102 C 
ATOM      6  N   LIG    1      165.467 103.604 173.968  0.00  0.00    -0.290 N 
ATOM      7  H   LIG    1      166.236 104.274 173.889  0.00  0.00    +0.151 HD
ATOM      8  C   LIG    1      165.615 102.653 174.918  0.00  0.00    +0.247 C 
ATOM      9  O   LIG    1      166.688 102.665 175.504  0.00  0.00    -0.270 OA
ATOM     10  C   LIG    1      164.526 101.733 175.174  0.00  0.00    +0.058 A 
ATOM     11  C   LIG    1      164.561 100.758 176.182  0.00  0.00    +0.016 A 
ATOM     12  C   LIG    1      163.481  99.905 176.374  0.00  0.00    +0.021 A 
ATOM     13  C   LIG    1      162.351 100.014 175.552  0.00  0.00    +0.043 A 
ATOM     14 CL   LIG    1      161.007  98.945 175.798  0.00  0.00    -0.083 Cl
ATOM     15  C   LIG    1      162.297 100.973 174.544  0.00  0.00    +0.043 A 
ATOM     16  C   LIG    1      163.382 101.829 174.366  0.00  0.00    +0.042 A 
ATOM     17  N   LIG    1      163.346 102.796 173.362  0.00  0.00    -0.323 N 
ATOM     18  H   LIG    1      162.427 102.971 172.940  0.00  0.00    +0.148 HD
ATOM     19  C   LIG    1      164.409 104.564 172.043  0.00  0.00    +0.064 C 
ATOM     20  C   LIG    1      163.073 105.095 171.496  0.00  0.00    +0.112 C 
ATOM     21  O   LIG    1      163.609 107.757 171.393  0.00  0.00    -0.270 OA
ENDROOT
BRANCH   1  25
ATOM     22  C   LIG    1      158.948 110.302 173.561  0.00  0.00    +0.044 C 
ATOM     23  C   LIG    1      160.368 109.838 173.800  0.00  0.00    -0.049 A 
ATOM     24  C   LIG    1      160.942 108.873 172.977  0.00  0.00    +0.016 A 
ATOM     25  C   LIG    1      162.252 108.434 173.195  0.00  0.00    +0.037 A 
ATOM     26  C   LIG    1      162.972 108.959 174.278  0.00  0.00    +0.016 A 
ATOM     27  C   LIG    1      162.407 109.923 175.106  0.00  0.00    -0.049 A 
ATOM     28  C   LIG    1      163.187 110.483 176.276  0.00  0.00    +0.044 C 
ATOM     29  C   LIG    1      161.105 110.357 174.863  0.00  0.00    +0.006 A 
ENDBRANCH   1  25
TORSDOF 1
