REMARK VINA RESULT:      -6.5      2.701      3.369
REMARK  Name = 
REMARK                            x       y       z     vdW  Elec       q    Type
REMARK                         _______ _______ _______ _____ _____    ______ ____
ROOT
ATOM      1  C   LIG    1      169.798 151.344 147.316  0.00  0.00    +0.155 A 
ATOM      2  C   LIG    1      170.168 150.011 147.236  0.00  0.00    +0.054 A 
ATOM      3  C   LIG    1      170.750 149.493 146.098  0.00  0.00    +0.089 A 
ATOM      4  C   LIG    1      171.128 148.149 146.006  0.00  0.00    +0.059 A 
ATOM      5  C   LIG    1      170.915 147.311 147.079  0.00  0.00    +0.174 A 
ATOM      6  C   LIG    1      170.332 147.852 148.204  0.00  0.00    +0.173 A 
ATOM      7  N   LIG    1      170.958 150.312 145.052  0.00  0.00    -0.224 NA
ATOM      8  C   LIG    1      170.601 151.605 145.123  0.00  0.00    +0.200 A 
ATOM      9  C   LIG    1      169.960 149.161 148.303  0.00  0.00    +0.044 A 
ATOM     10  N   LIG    1      170.034 152.100 146.238  0.00  0.00    -0.207 NA
ENDROOT
BRANCH   1  11
ATOM     11  N   LIG    1      169.208 151.796 148.515  0.00  0.00    -0.194 NA
BRANCH  11  14
ATOM     12  C   LIG    1      165.794 151.259 149.894  0.00  0.00    +0.044 A 
ATOM     13  C   LIG    1      167.157 151.210 149.687  0.00  0.00    +0.025 A 
ATOM     14  C   LIG    1      167.792 151.891 148.670  0.00  0.00    +0.073 A 
ATOM     15  C   LIG    1      167.051 152.667 147.803  0.00  0.00    +0.017 A 
ATOM     16  C   LIG    1      165.686 152.732 147.987  0.00  0.00    +0.002 A 
ATOM     17  C   LIG    1      165.072 152.046 149.006  0.00  0.00    +0.008 A 
BRANCH  12  19
ATOM     18  C   LIG    1      164.612 149.916 151.863  0.00  0.00    -0.009 C 
ATOM     19  C   LIG    1      165.145 150.537 150.965  0.00  0.00    -0.051 C 
ENDBRANCH  12  19
ENDBRANCH  11  14
ENDBRANCH   1  11
BRANCH   6  20
ATOM     20  O   LIG    1      170.126 146.987 149.276  0.00  0.00    -0.470 OA
BRANCH  20  21
ATOM     21  C   LIG    1      168.982 146.201 149.447  0.00  0.00    +0.237 C 
BRANCH  21  22
ATOM     22  C   LIG    1      168.340 146.450 150.794  0.00  0.00    +0.189 C 
BRANCH  22  23
ATOM     23  O   LIG    1      167.494 147.573 150.704  0.00  0.00    -0.347 OA
ATOM     24  C   LIG    1      166.603 147.463 149.649  0.00  0.00    +0.174 C 
ENDBRANCH  22  23
ENDBRANCH  21  22
ENDBRANCH  20  21
ENDBRANCH   6  20
BRANCH   5  25
ATOM     25  O   LIG    1      171.279 145.951 147.033  0.00  0.00    -0.470 OA
BRANCH  25  26
ATOM     26  C   LIG    1      172.126 145.479 146.003  0.00  0.00    +0.237 C 
BRANCH  26  27
ATOM     27  C   LIG    1      171.474 144.229 145.433  0.00  0.00    +0.189 C 
BRANCH  27  28
ATOM     28  O   LIG    1      171.344 144.289 144.061  0.00  0.00    -0.347 OA
ATOM     29  C   LIG    1      170.248 145.067 143.703  0.00  0.00    +0.174 C 
ENDBRANCH  27  28
ENDBRANCH  26  27
ENDBRANCH  25  26
ENDBRANCH   5  25
TORSDOF 11
