REMARK VINA RESULT:      -6.9      0.000      0.000
REMARK  Name = ZINC000049399659
REMARK                            x       y       z     vdW  Elec       q    Type
REMARK                         _______ _______ _______ _____ _____    ______ ____
ROOT
ATOM      1  C   LIG    1      165.100 160.350 157.904  0.00  0.00    +0.173 C 
ENDROOT
BRANCH   1   4
ATOM      2  N   LIG    1      164.867 161.892 156.002  0.00  0.00    -0.282 N 
ATOM      3  H   LIG    1      165.519 161.229 155.557  0.00  0.00    +0.155 HD
ATOM      4  C   LIG    1      164.593 161.653 157.326  0.00  0.00    +0.228 C 
ATOM      5  O   LIG    1      163.980 162.458 157.996  0.00  0.00    -0.275 OA
BRANCH   2   7
ATOM      6  C   LIG    1      163.315 162.804 154.410  0.00  0.00    +0.141 A 
ATOM      7  C   LIG    1      164.486 162.980 155.165  0.00  0.00    +0.077 A 
ATOM      8  C   LIG    1      165.198 164.179 155.086  0.00  0.00    +0.047 A 
ATOM      9  C   LIG    1      164.740 165.188 154.237  0.00  0.00    +0.043 A 
ATOM     10 CL   LIG    1      165.611 166.679 154.125  0.00  0.00    -0.083 Cl
ATOM     11  C   LIG    1      163.580 165.010 153.477  0.00  0.00    +0.024 A 
ATOM     12  C   LIG    1      162.864 163.818 153.564  0.00  0.00    +0.049 A 
BRANCH   6  14
ATOM     13  C   LIG    1      161.249 161.384 154.132  0.00  0.00    +0.277 C 
ATOM     14  O   LIG    1      162.622 161.598 154.535  0.00  0.00    -0.493 OA
ENDBRANCH   6  14
ENDBRANCH   2   7
ENDBRANCH   1   4
BRANCH   1  15
ATOM     15  S   LIG    1      163.618 159.387 158.390  0.00  0.00    -0.077 S 
BRANCH  15  16
ATOM     16  C   LIG    1      164.276 158.208 159.481  0.00  0.00    +0.190 A 
ATOM     17  N   LIG    1      165.205 158.615 160.348  0.00  0.00    -0.207 NA
ATOM     18  C   LIG    1      165.708 157.722 161.183  0.00  0.00    +0.126 A 
ATOM     19  C   LIG    1      165.281 156.398 161.163  0.00  0.00    +0.063 A 
ATOM     20  C   LIG    1      164.324 156.039 160.239  0.00  0.00    +0.117 A 
ATOM     21  N   LIG    1      163.828 156.940 159.402  0.00  0.00    -0.230 NA
BRANCH  18  22
ATOM     22  N   LIG    1      166.675 158.132 162.094  0.00  0.00    -0.315 N 
ATOM     23  C   LIG    1      167.039 159.561 162.058  0.00  0.00    +0.106 C 
ATOM     24  C   LIG    1      168.481 159.648 162.588  0.00  0.00    +0.019 C 
ATOM     25  C   LIG    1      168.491 159.105 164.028  0.00  0.00    +0.003 C 
ATOM     26  C   LIG    1      168.032 157.637 164.031  0.00  0.00    +0.019 C 
ATOM     27  C   LIG    1      166.601 157.574 163.464  0.00  0.00    +0.106 C 
ENDBRANCH  18  22
ENDBRANCH  15  16
ENDBRANCH   1  15
TORSDOF 6
