REMARK VINA RESULT:      -7.2     61.474     64.196
REMARK  Name = ZINC000006087320
REMARK                            x       y       z     vdW  Elec       q    Type
REMARK                         _______ _______ _______ _____ _____    ______ ____
ROOT
ATOM      1  C   LIG    1      205.879 114.992 143.919  0.00  0.00    +0.222 C 
ENDROOT
BRANCH   1   2
ATOM      2  N   LIG    1      204.416 115.063 144.147  0.00  0.00    -0.290 N 
ATOM      3  C   LIG    1      203.879 116.029 144.980  0.00  0.00    +0.262 A 
ATOM      4  O   LIG    1      204.664 116.808 145.527  0.00  0.00    -0.267 OA
ATOM      5  C   LIG    1      202.444 116.050 145.165  0.00  0.00    +0.068 A 
ATOM      6  C   LIG    1      201.814 117.012 145.969  0.00  0.00    +0.035 A 
ATOM      7  C   LIG    1      200.432 116.993 146.122  0.00  0.00    +0.043 A 
ATOM      8 CL   LIG    1      199.659 118.179 147.115  0.00  0.00    -0.083 Cl
ATOM      9  C   LIG    1      199.664 116.018 145.480  0.00  0.00    +0.042 A 
ATOM     10  C   LIG    1      200.283 115.063 144.683  0.00  0.00    +0.068 A 
ATOM     11 CL   LIG    1      199.296 113.868 143.901  0.00  0.00    -0.081 Cl
ATOM     12  C   LIG    1      201.686 115.067 144.516  0.00  0.00    +0.096 A 
ATOM     13  N   LIG    1      202.337 114.105 143.720  0.00  0.00    -0.235 NA
ATOM     14  C   LIG    1      203.605 114.108 143.560  0.00  0.00    +0.203 A 
ENDBRANCH   1   2
BRANCH   1  17
ATOM     15  N   LIG    1      206.166 113.971 146.143  0.00  0.00    -0.284 N 
ATOM     16  H   LIG    1      205.601 114.795 146.415  0.00  0.00    +0.155 HD
ATOM     17  C   LIG    1      206.428 113.881 144.797  0.00  0.00    +0.237 C 
ATOM     18  O   LIG    1      207.050 112.953 144.325  0.00  0.00    -0.274 OA
BRANCH  15  20
ATOM     19  C   LIG    1      205.682 112.131 147.640  0.00  0.00    -0.026 A 
ATOM     20  C   LIG    1      206.576 113.128 147.209  0.00  0.00    +0.037 A 
ATOM     21  C   LIG    1      207.836 113.260 147.803  0.00  0.00    +0.023 A 
ATOM     22  C   LIG    1      208.199 112.415 148.844  0.00  0.00    +0.002 A 
ATOM     23  C   LIG    1      207.316 111.437 149.289  0.00  0.00    +0.000 A 
ATOM     24  C   LIG    1      206.067 111.298 148.688  0.00  0.00    +0.005 A 
BRANCH  19  26
ATOM     25  C   LIG    1      203.455 113.140 147.433  0.00  0.00    +0.009 C 
ATOM     26  C   LIG    1      204.305 111.931 147.018  0.00  0.00    +0.033 C 
ENDBRANCH  19  26
ENDBRANCH  15  20
ENDBRANCH   1  17
TORSDOF 4
