REMARK VINA RESULT:      -8.0     49.276     53.275
REMARK  Name = ZINC000049410085
REMARK                            x       y       z     vdW  Elec       q    Type
REMARK                         _______ _______ _______ _____ _____    ______ ____
ROOT
ATOM      1  C   LIG    1      164.098 106.782 172.726  0.00  0.00    +0.247 C 
ATOM      2  N   LIG    1      163.710 105.446 172.784  0.00  0.00    -0.297 N 
ATOM      3  C   LIG    1      162.762 104.958 173.799  0.00  0.00    +0.112 C 
ATOM      4  C   LIG    1      163.644 104.399 174.928  0.00  0.00    +0.064 C 
ATOM      5  C   LIG    1      164.560 103.299 174.359  0.00  0.00    +0.102 C 
ATOM      6  N   LIG    1      165.446 102.868 175.401  0.00  0.00    -0.290 N 
ATOM      7  H   LIG    1      166.209 103.494 175.673  0.00  0.00    +0.151 HD
ATOM      8  C   LIG    1      165.094 101.941 176.321  0.00  0.00    +0.247 C 
ATOM      9  O   LIG    1      165.790 101.915 177.326  0.00  0.00    -0.270 OA
ATOM     10  C   LIG    1      163.951 101.089 176.065  0.00  0.00    +0.058 A 
ATOM     11  C   LIG    1      163.470 100.147 176.986  0.00  0.00    +0.016 A 
ATOM     12  C   LIG    1      162.368  99.359 176.677  0.00  0.00    +0.021 A 
ATOM     13  C   LIG    1      161.734  99.503 175.435  0.00  0.00    +0.043 A 
ATOM     14 CL   LIG    1      160.359  98.515 175.056  0.00  0.00    -0.083 Cl
ATOM     15  C   LIG    1      162.198 100.430 174.506  0.00  0.00    +0.043 A 
ATOM     16  C   LIG    1      163.298 101.221 174.830  0.00  0.00    +0.042 A 
ATOM     17  N   LIG    1      163.775 102.156 173.912  0.00  0.00    -0.323 N 
ATOM     18  H   LIG    1      163.156 102.367 173.121  0.00  0.00    +0.148 HD
ATOM     19  C   LIG    1      165.424 103.821 173.202  0.00  0.00    +0.064 C 
ATOM     20  C   LIG    1      164.510 104.406 172.112  0.00  0.00    +0.112 C 
ATOM     21  O   LIG    1      165.200 107.031 172.248  0.00  0.00    -0.270 OA
ENDROOT
BRANCH   1  25
ATOM     22  C   LIG    1      163.084 110.199 176.237  0.00  0.00    +0.044 C 
ATOM     23  C   LIG    1      162.719 109.484 174.954  0.00  0.00    -0.049 A 
ATOM     24  C   LIG    1      163.553 108.498 174.435  0.00  0.00    +0.016 A 
ATOM     25  C   LIG    1      163.225 107.837 173.247  0.00  0.00    +0.037 A 
ATOM     26  C   LIG    1      162.055 108.203 172.567  0.00  0.00    +0.016 A 
ATOM     27  C   LIG    1      161.216 109.188 173.077  0.00  0.00    -0.049 A 
ATOM     28  C   LIG    1      159.957 109.584 172.337  0.00  0.00    +0.044 C 
ATOM     29  C   LIG    1      161.554 109.825 174.270  0.00  0.00    +0.006 A 
ENDBRANCH   1  25
TORSDOF 1
