REMARK VINA RESULT:      -7.0     40.676     43.428
REMARK  Name = ZINC000049408611
REMARK                            x       y       z     vdW  Elec       q    Type
REMARK                         _______ _______ _______ _____ _____    ______ ____
ROOT
ATOM      1  N   LIG    1      200.160 114.608 143.748  0.00  0.00    -0.199 N 
ENDROOT
BRANCH   1   2
ATOM      2  C   LIG    1      200.882 113.745 144.592  0.00  0.00    +0.053 A 
ATOM      3  C   LIG    1      202.190 113.341 144.309  0.00  0.00    +0.044 A 
ATOM      4  C   LIG    1      202.848 112.499 145.200  0.00  0.00    +0.043 A 
ATOM      5 CL   LIG    1      204.470 111.993 144.865  0.00  0.00    -0.083 Cl
ATOM      6  C   LIG    1      202.213 112.063 146.366  0.00  0.00    +0.020 A 
ATOM      7  C   LIG    1      200.909 112.469 146.637  0.00  0.00    +0.003 A 
ATOM      8  C   LIG    1      200.239 113.307 145.752  0.00  0.00    +0.025 A 
ENDBRANCH   1   2
BRANCH   1  10
ATOM      9  O   LIG    1      201.051 116.638 142.579  0.00  0.00    -0.150 OA
ATOM     10  S   LIG    1      200.656 116.195 143.868  0.00  0.00    +0.076 S 
ATOM     11  O   LIG    1      201.628 116.293 144.898  0.00  0.00    -0.150 OA
BRANCH  10  12
ATOM     12  C   LIG    1      199.175 117.109 144.359  0.00  0.00    +0.125 A 
ATOM     13  C   LIG    1      199.034 117.576 145.641  0.00  0.00    +0.123 A 
ATOM     14  N   LIG    1      197.875 118.281 145.978  0.00  0.00    -0.287 N 
ATOM     15  C   LIG    1      197.521 118.838 147.134  0.00  0.00    +0.229 A 
ATOM     16  N   LIG    1      196.362 119.409 147.001  0.00  0.00    -0.137 NA
ATOM     17  N   LIG    1      195.942 119.217 145.716  0.00  0.00    -0.130 NA
ATOM     18  C   LIG    1      196.877 118.526 145.105  0.00  0.00    +0.161 A 
ATOM     19  C   LIG    1      196.999 118.029 143.774  0.00  0.00    +0.050 A 
ATOM     20  C   LIG    1      198.118 117.335 143.408  0.00  0.00    +0.034 A 
ENDBRANCH  10  12
ENDBRANCH   1  10
BRANCH   1  21
ATOM     21  C   LIG    1      200.183 114.267 142.319  0.00  0.00    +0.166 C 
BRANCH  21  22
ATOM     22  C   LIG    1      198.846 113.605 142.039  0.00  0.00    -0.028 A 
ATOM     23  C   LIG    1      197.801 114.326 141.458  0.00  0.00    +0.005 A 
ATOM     24  C   LIG    1      196.582 113.708 141.197  0.00  0.00    +0.000 A 
ATOM     25  C   LIG    1      196.398 112.367 141.517  0.00  0.00    +0.000 A 
ATOM     26  C   LIG    1      197.435 111.642 142.095  0.00  0.00    +0.000 A 
ATOM     27  C   LIG    1      198.656 112.259 142.353  0.00  0.00    +0.005 A 
ENDBRANCH  21  22
ENDBRANCH   1  21
TORSDOF 5
