REMARK VINA RESULT:      -7.8      0.000      0.000
REMARK  Name = ZINC000186872603
REMARK                            x       y       z     vdW  Elec       q    Type
REMARK                         _______ _______ _______ _____ _____    ______ ____
ROOT
ATOM      1  N   LIG    1      169.321 146.318 145.829  0.00  0.00    -0.297 N 
ATOM      2  C   LIG    1      169.491 147.158 144.613  0.00  0.00    +0.123 C 
ATOM      3  C   LIG    1      170.965 147.630 144.551  0.00  0.00    +0.103 C 
ATOM      4  N   LIG    1      171.322 148.401 145.778  0.00  0.00    -0.299 NA
ATOM      5  C   LIG    1      171.152 147.523 146.979  0.00  0.00    +0.103 C 
ATOM      6  C   LIG    1      169.697 146.993 147.099  0.00  0.00    +0.123 C 
ENDROOT
BRANCH   1  10
ATOM      7  C   LIG    1      167.427 142.326 144.030  0.00  0.00    +0.066 C 
ATOM      8  C   LIG    1      167.370 143.474 145.009  0.00  0.00    +0.044 A 
ATOM      9  N   LIG    1      168.336 144.367 144.986  0.00  0.00    -0.220 NA
ATOM     10  C   LIG    1      168.294 145.384 145.856  0.00  0.00    +0.218 A 
ATOM     11  N   LIG    1      167.314 145.548 146.753  0.00  0.00    -0.219 NA
ATOM     12  C   LIG    1      166.331 144.666 146.801  0.00  0.00    +0.049 A 
ATOM     13  C   LIG    1      166.334 143.594 145.922  0.00  0.00    +0.046 A 
BRANCH  12  14
ATOM     14  C   LIG    1      165.208 144.836 147.820  0.00  0.00    +0.032 C 
ATOM     15  C   LIG    1      165.785 144.698 149.238  0.00  0.00    +0.014 C 
ATOM     16  C   LIG    1      164.128 143.772 147.566  0.00  0.00    +0.014 C 
ENDBRANCH  12  14
ENDBRANCH   1  10
BRANCH   4  17
ATOM     17  C   LIG    1      170.619 149.699 145.857  0.00  0.00    +0.085 C 
BRANCH  17  18
ATOM     18  C   LIG    1      171.366 150.485 146.950  0.00  0.00    +0.025 C 
BRANCH  18  19
ATOM     19  C   LIG    1      171.218 151.991 146.659  0.00  0.00    +0.097 C 
BRANCH  19  20
ATOM     20  C   LIG    1      170.016 152.514 147.416  0.00  0.00    +0.197 A 
ATOM     21  O   LIG    1      170.163 152.877 148.719  0.00  0.00    -0.440 OA
ATOM     22  C   LIG    1      168.952 153.295 149.096  0.00  0.00    +0.155 A 
ATOM     23  C   LIG    1      168.528 153.781 150.331  0.00  0.00    +0.048 A 
ATOM     24  C   LIG    1      167.192 154.153 150.453  0.00  0.00    +0.004 A 
ATOM     25  C   LIG    1      166.316 154.032 149.355  0.00  0.00    +0.002 A 
ATOM     26  C   LIG    1      166.772 153.541 148.133  0.00  0.00    +0.031 A 
ATOM     27  C   LIG    1      168.114 153.171 148.014  0.00  0.00    +0.110 A 
ATOM     28  N   LIG    1      168.831 152.669 146.954  0.00  0.00    -0.213 NA
ENDBRANCH  19  20
ENDBRANCH  18  19
ENDBRANCH  17  18
ENDBRANCH   4  17
TORSDOF 6
