REMARK VINA RESULT:      -7.4      4.099      6.153
REMARK  Name = ZINC000009075134
REMARK                            x       y       z     vdW  Elec       q    Type
REMARK                         _______ _______ _______ _____ _____    ______ ____
ROOT
ATOM      1  C   LIG    1      171.181 146.515 144.734  0.00  0.00    +0.061 A 
ATOM      2  C   LIG    1      170.815 147.848 144.475  0.00  0.00    +0.039 A 
ATOM      3  C   LIG    1      171.060 148.838 145.416  0.00  0.00    +0.048 A 
ATOM      4  N   LIG    1      170.624 150.158 145.134  0.00  0.00    -0.284 N 
ATOM      5  H   LIG    1      169.890 150.320 144.431  0.00  0.00    +0.155 HD
ATOM      6  C   LIG    1      171.027 151.273 145.795  0.00  0.00    +0.227 C 
ATOM      7  C   LIG    1      172.201 151.238 146.755  0.00  0.00    +0.170 C 
ATOM      8  S   LIG    1      172.006 149.769 147.834  0.00  0.00    -0.114 S 
ATOM      9  O   LIG    1      170.422 152.290 145.538  0.00  0.00    -0.275 OA
ATOM     10  C   LIG    1      171.682 148.536 146.644  0.00  0.00    +0.030 A 
ATOM     11  C   LIG    1      172.033 147.210 146.909  0.00  0.00    +0.017 A 
ATOM     12  C   LIG    1      171.791 146.215 145.968  0.00  0.00    +0.016 A 
ENDROOT
BRANCH   1  14
ATOM     13  O   LIG    1      171.793 145.008 143.009  0.00  0.00    -0.245 OA
ATOM     14  C   LIG    1      170.930 145.477 143.739  0.00  0.00    +0.340 C 
BRANCH  14  15
ATOM     15  O   LIG    1      169.666 145.010 143.606  0.00  0.00    -0.456 OA
BRANCH  15  16
ATOM     16  C   LIG    1      169.253 143.712 144.108  0.00  0.00    +0.268 C 
BRANCH  16  17
ATOM     17  C   LIG    1      168.184 144.015 145.142  0.00  0.00    -0.010 A 
ATOM     18  C   LIG    1      166.835 143.839 144.831  0.00  0.00    +0.008 A 
ATOM     19  C   LIG    1      165.855 144.114 145.780  0.00  0.00    +0.015 A 
ATOM     20  C   LIG    1      166.215 144.565 147.047  0.00  0.00    +0.018 A 
ATOM     21 BR   LIG    1      164.881 144.941 148.336  0.00  0.00    -0.050 Br
ATOM     22  C   LIG    1      167.560 144.736 147.363  0.00  0.00    +0.015 A 
ATOM     23  C   LIG    1      168.541 144.459 146.415  0.00  0.00    +0.008 A 
ENDBRANCH  16  17
ENDBRANCH  15  16
ENDBRANCH  14  15
ENDBRANCH   1  14
TORSDOF 4
