REMARK VINA RESULT:      -7.3      2.930      8.591
REMARK  Name = ZINC000193545175
REMARK                            x       y       z     vdW  Elec       q    Type
REMARK                         _______ _______ _______ _____ _____    ______ ____
ROOT
ATOM      1  C   LIG    1      169.987 149.983 145.925  0.00  0.00    +0.171 A 
ATOM      2  N   LIG    1      169.142 150.463 146.891  0.00  0.00    -0.204 NA
ATOM      3  C   LIG    1      169.587 151.603 147.288  0.00  0.00    +0.185 A 
ATOM      4  S   LIG    1      171.024 152.113 146.505  0.00  0.00    +0.050 S 
ATOM      5  N   LIG    1      171.014 150.732 145.613  0.00  0.00    -0.187 NA
ENDROOT
BRANCH   1   8
ATOM      6  C   LIG    1      170.577 146.727 144.104  0.00  0.00    +0.121 A 
ATOM      7  C   LIG    1      170.812 147.954 144.721  0.00  0.00    +0.057 A 
ATOM      8  C   LIG    1      169.750 148.689 145.270  0.00  0.00    +0.023 A 
ATOM      9  C   LIG    1      168.454 148.147 145.175  0.00  0.00    +0.012 A 
ATOM     10  C   LIG    1      168.229 146.920 144.556  0.00  0.00    +0.004 A 
ATOM     11  C   LIG    1      169.291 146.205 144.018  0.00  0.00    +0.045 A 
BRANCH   6  13
ATOM     12  C   LIG    1      171.472 144.610 143.107  0.00  0.00    +0.277 C 
ATOM     13  O   LIG    1      171.594 145.979 143.554  0.00  0.00    -0.495 OA
ENDBRANCH   6  13
ENDBRANCH   1   8
BRANCH   3  14
ATOM     14  N   LIG    1      168.881 152.287 148.278  0.00  0.00    -0.259 N 
ATOM     15  H   LIG    1      169.260 152.178 149.223  0.00  0.00    +0.157 HD
ATOM     16  C   LIG    1      167.776 153.083 148.144  0.00  0.00    +0.254 C 
ATOM     17  O   LIG    1      167.320 153.246 147.023  0.00  0.00    -0.270 OA
BRANCH  16  18
ATOM     18  C   LIG    1      167.193 153.711 149.321  0.00  0.00    +0.089 A 
ATOM     19  C   LIG    1      165.917 153.646 149.816  0.00  0.00    +0.182 A 
ATOM     20 BR   LIG    1      164.347 152.762 149.244  0.00  0.00    -0.008 Br
ATOM     21  O   LIG    1      165.825 154.390 150.938  0.00  0.00    -0.456 OA
ATOM     22  C   LIG    1      167.040 154.939 151.171  0.00  0.00    +0.197 A 
ATOM     23  C   LIG    1      167.898 154.548 150.206  0.00  0.00    +0.055 A 
ENDBRANCH  16  18
ENDBRANCH   3  14
TORSDOF 4
