REMARK VINA RESULT:      -7.2      0.000      0.000
REMARK  Name = ZINC000000623420
REMARK                            x       y       z     vdW  Elec       q    Type
REMARK                         _______ _______ _______ _____ _____    ______ ____
ROOT
ATOM      1  C   LIG    1      166.666 154.643 150.268  0.00  0.00    +0.102 A 
ATOM      2  C   LIG    1      165.760 153.615 150.046  0.00  0.00    -0.014 A 
ATOM      3  C   LIG    1      164.266 153.743 150.318  0.00  0.00    +0.046 C 
ATOM      4  C   LIG    1      166.361 152.426 149.541  0.00  0.00    +0.091 A 
ATOM      5  C   LIG    1      167.729 152.606 149.349  0.00  0.00    +0.087 A 
ATOM      6  S   LIG    1      168.272 154.177 149.788  0.00  0.00    -0.066 S 
ENDROOT
BRANCH   5   7
ATOM      7  N   LIG    1      168.610 151.640 148.824  0.00  0.00    -0.275 N 
ATOM      8  H   LIG    1      168.879 150.882 149.470  0.00  0.00    +0.156 HD
ATOM      9  C   LIG    1      169.203 151.567 147.576  0.00  0.00    +0.249 C 
ATOM     10  O   LIG    1      169.023 152.459 146.762  0.00  0.00    -0.270 OA
BRANCH   9  11
ATOM     11  C   LIG    1      170.049 150.396 147.333  0.00  0.00    +0.040 A 
ATOM     12  C   LIG    1      169.667 149.377 146.437  0.00  0.00    -0.038 A 
ATOM     13  C   LIG    1      168.360 149.452 145.664  0.00  0.00    +0.044 C 
ATOM     14  C   LIG    1      170.500 148.275 146.248  0.00  0.00    +0.004 A 
ATOM     15  C   LIG    1      171.704 148.171 146.939  0.00  0.00    +0.000 A 
ATOM     16  C   LIG    1      172.089 149.172 147.822  0.00  0.00    +0.001 A 
ATOM     17  C   LIG    1      171.270 150.278 148.016  0.00  0.00    +0.013 A 
ENDBRANCH   9  11
ENDBRANCH   5   7
BRANCH   1  18
ATOM     18  C   LIG    1      166.463 155.969 150.829  0.00  0.00    +0.346 C 
ATOM     19  O   LIG    1      166.318 157.003 150.185  0.00  0.00    -0.244 OA
BRANCH  18  20
ATOM     20  O   LIG    1      166.422 156.082 152.181  0.00  0.00    -0.461 OA
BRANCH  20  22
ATOM     21  C   LIG    1      166.583 158.148 153.295  0.00  0.00    +0.048 C 
ATOM     22  C   LIG    1      165.601 157.068 152.845  0.00  0.00    +0.229 C 
ENDBRANCH  20  22
ENDBRANCH  18  20
ENDBRANCH   1  18
BRANCH   4  23
ATOM     23  C   LIG    1      165.669 151.173 149.271  0.00  0.00    +0.342 C 
ATOM     24  O   LIG    1      165.285 150.377 150.121  0.00  0.00    -0.245 OA
BRANCH  23  25
ATOM     25  O   LIG    1      165.415 150.821 147.972  0.00  0.00    -0.461 OA
BRANCH  25  26
ATOM     26  C   LIG    1      164.615 151.619 147.056  0.00  0.00    +0.229 C 
ATOM     27  C   LIG    1      165.573 152.032 145.939  0.00  0.00    +0.048 C 
ENDBRANCH  25  26
ENDBRANCH  23  25
ENDBRANCH   4  23
TORSDOF 8
