REMARK VINA RESULT:      -7.1     73.312     75.312
REMARK  Name = ZINC000049483826
REMARK                            x       y       z     vdW  Elec       q    Type
REMARK                         _______ _______ _______ _____ _____    ______ ____
ROOT
ATOM      1  N   LIG    1      197.881  81.907 166.068  0.00  0.00    -0.175 NA
ATOM      2  C   LIG    1      197.355  80.550 165.886  0.00  0.00    +0.123 C 
ATOM      3  C   LIG    1      198.209  80.494 164.594  0.00  0.00    +0.109 C 
ATOM      4  C   LIG    1      198.289  82.041 164.665  0.00  0.00    +0.123 C 
ENDROOT
BRANCH   3   5
ATOM      5  C   LIG    1      197.427  80.004 163.399  0.00  0.00    +0.233 A 
ATOM      6  O   LIG    1      198.060  79.391 162.422  0.00  0.00    -0.337 OA
ATOM      7  N   LIG    1      197.176  79.063 161.506  0.00  0.00    -0.056 NA
ATOM      8  C   LIG    1      196.043  79.484 161.957  0.00  0.00    +0.209 A 
ATOM      9  N   LIG    1      196.182  80.088 163.165  0.00  0.00    -0.191 NA
BRANCH   8  10
ATOM     10  C   LIG    1      194.775  79.330 161.256  0.00  0.00    +0.060 A 
ATOM     11  S   LIG    1      193.686  80.666 161.027  0.00  0.00    -0.093 S 
ATOM     12  C   LIG    1      192.561  79.664 160.185  0.00  0.00    +0.046 A 
ATOM     13  C   LIG    1      193.005  78.376 160.087  0.00  0.00    +0.008 A 
ATOM     14  C   LIG    1      194.256  78.186 160.693  0.00  0.00    +0.019 A 
ENDBRANCH   8  10
ENDBRANCH   3   5
BRANCH   1  15
ATOM     15  S   LIG    1      198.861  82.307 167.324  0.00  0.00    +0.061 S 
ATOM     16  O   LIG    1      199.688  81.194 167.636  0.00  0.00    -0.153 OA
ATOM     17  O   LIG    1      199.532  83.515 166.985  0.00  0.00    -0.153 OA
BRANCH  15  20
ATOM     18  C   LIG    1      196.928  84.836 167.683  0.00  0.00    +0.046 C 
ATOM     19  C   LIG    1      196.919  83.781 168.777  0.00  0.00    -0.024 A 
ATOM     20  C   LIG    1      197.733  82.632 168.709  0.00  0.00    +0.110 A 
ATOM     21  C   LIG    1      197.669  81.698 169.748  0.00  0.00    +0.048 A 
ATOM     22  C   LIG    1      196.823  81.898 170.836  0.00  0.00    +0.043 A 
ATOM     23 CL   LIG    1      196.769  80.731 172.114  0.00  0.00    -0.083 Cl
ATOM     24  C   LIG    1      196.022  83.034 170.899  0.00  0.00    +0.020 A 
ATOM     25  C   LIG    1      196.072  83.968 169.872  0.00  0.00    +0.007 A 
ENDBRANCH  15  20
ENDBRANCH   1  15
TORSDOF 4
