REMARK VINA RESULT:      -7.2     49.193     53.313
REMARK  Name = 
REMARK                            x       y       z     vdW  Elec       q    Type
REMARK                         _______ _______ _______ _____ _____    ______ ____
ROOT
ATOM      1  C   LIG    1      162.191  99.655 175.188  0.00  0.00    +0.035 A 
ATOM      2  C   LIG    1      163.141 100.537 174.727  0.00  0.00    +0.007 A 
ATOM      3  C   LIG    1      164.125 101.017 175.587  0.00  0.00    +0.051 A 
ATOM      4  C   LIG    1      164.194 100.642 176.912  0.00  0.00    +0.086 A 
ATOM      5  N   LIG    1      165.145 101.102 177.758  0.00  0.00    -0.224 NA
ATOM      6  C   LIG    1      166.049 101.957 177.265  0.00  0.00    +0.200 A 
ATOM      7  N   LIG    1      166.006 102.341 175.970  0.00  0.00    -0.207 NA
ATOM      8  C   LIG    1      163.222  99.751 177.350  0.00  0.00    +0.019 A 
ATOM      9  C   LIG    1      165.087 101.909 175.116  0.00  0.00    +0.155 A 
ATOM     10  C   LIG    1      162.244  99.270 176.509  0.00  0.00    +0.005 A 
ENDROOT
BRANCH   1  13
ATOM     11  C   LIG    1      159.418  98.176 173.455  0.00  0.00    +0.140 A 
ATOM     12  O   LIG    1      160.131  98.440 174.513  0.00  0.00    -0.456 OA
ATOM     13  C   LIG    1      161.168  99.162 174.275  0.00  0.00    +0.145 A 
ATOM     14  C   LIG    1      161.171  99.424 172.908  0.00  0.00    +0.040 A 
ATOM     15  C   LIG    1      160.062  98.798 172.394  0.00  0.00    +0.038 A 
BRANCH  11  16
ATOM     16  C   LIG    1      158.155  97.371 173.351  0.00  0.00    +0.153 C 
BRANCH  16  17
ATOM     17  N   LIG    1      158.177  96.585 172.123  0.00  0.00    -0.208 NA
BRANCH  17  18
ATOM     18  C   LIG    1      157.826  95.222 172.458  0.00  0.00    +0.114 C 
BRANCH  18  19
ATOM     19  C   LIG    1      157.314  94.452 171.274  0.00  0.00    +0.170 C 
BRANCH  19  21
ATOM     20  C   LIG    1      156.977  91.753 170.305  0.00  0.00    +0.176 C 
ATOM     21  S   LIG    1      158.065  92.848 171.147  0.00  0.00    -0.007 S 
ATOM     22  O   LIG    1      158.247  92.325 172.551  0.00  0.00    -0.173 OA
ATOM     23  O   LIG    1      159.389  92.917 170.429  0.00  0.00    -0.173 OA
ENDBRANCH  19  21
ENDBRANCH  18  19
ENDBRANCH  17  18
ENDBRANCH  16  17
ENDBRANCH  11  16
ENDBRANCH   1  13
BRANCH   9  24
ATOM     24  N   LIG    1      165.002 102.283 173.764  0.00  0.00    -0.194 NA
BRANCH  24  25
ATOM     25  C   LIG    1      164.476 103.515 173.376  0.00  0.00    +0.073 A 
ATOM     26  C   LIG    1      165.013 104.263 172.325  0.00  0.00    +0.031 A 
ATOM     27  C   LIG    1      164.454 105.459 171.991  0.00  0.00    +0.093 A 
ATOM     28 CL   LIG    1      165.097 106.456 170.673  0.00  0.00    -0.079 Cl
ATOM     29  C   LIG    1      163.359 105.973 172.660  0.00  0.00    +0.150 A 
ATOM     30  C   LIG    1      162.821 105.245 173.697  0.00  0.00    +0.039 A 
ATOM     31  C   LIG    1      163.386 104.041 174.031  0.00  0.00    +0.020 A 
BRANCH  29  32
ATOM     32  O   LIG    1      162.811 107.213 172.283  0.00  0.00    -0.470 OA
BRANCH  32  33
ATOM     33  C   LIG    1      161.690 107.683 173.023  0.00  0.00    +0.232 C 
BRANCH  33  34
ATOM     34  C   LIG    1      162.209 108.614 174.052  0.00  0.00    +0.023 A 
ATOM     35  C   LIG    1      163.527 108.607 174.455  0.00  0.00    +0.029 A 
ATOM     36  C   LIG    1      163.954 109.514 175.431  0.00  0.00    +0.140 A 
ATOM     37  F   LIG    1      165.242 109.548 175.860  0.00  0.00    -0.204 F 
ATOM     38  C   LIG    1      163.070 110.407 175.987  0.00  0.00    +0.030 A 
ATOM     39  C   LIG    1      161.767 110.417 175.591  0.00  0.00    +0.002 A 
ATOM     40  C   LIG    1      161.347 109.518 174.626  0.00  0.00    -0.001 A 
ENDBRANCH  33  34
ENDBRANCH  32  33
ENDBRANCH  29  32
ENDBRANCH  24  25
ENDBRANCH   9  24
TORSDOF 11
