REMARK VINA RESULT:      -7.7     15.496     19.517
REMARK  Name = 
REMARK                            x       y       z     vdW  Elec       q    Type
REMARK                         _______ _______ _______ _____ _____    ______ ____
ROOT
ATOM      1  C   LIG    1      188.440 103.873 150.055  0.00  0.00    +0.072 C 
ATOM      2  C   LIG    1      188.242 105.360 149.501  0.00  0.00    +0.070 C 
ATOM      3  N   LIG    1      189.464 105.982 150.217  0.00  0.00    -0.269 NA
ATOM      4  C   LIG    1      188.985 107.044 150.984  0.00  0.00    +0.073 C 
ATOM      5  C   LIG    1      187.891 106.299 151.764  0.00  0.00    +0.024 C 
ATOM      6  C   LIG    1      190.407 105.119 150.706  0.00  0.00    +0.099 C 
ATOM      7  C   LIG    1      189.797 104.299 151.824  0.00  0.00    -0.013 C 
ATOM      8  C   LIG    1      187.136 105.870 150.548  0.00  0.00    +0.055 C 
ATOM      9  C   LIG    1      186.242 104.602 150.925  0.00  0.00    +0.120 C 
ATOM     10  C   LIG    1      186.068 103.862 149.513  0.00  0.00    +0.268 C 
ATOM     11  O   LIG    1      185.087 102.975 150.006  0.00  0.00    -0.209 OA
ATOM     12  N   LIG    1      184.847 105.295 150.826  0.00  0.00    -0.304 N 
ATOM     13  C   LIG    1      183.653 104.634 151.271  0.00  0.00    +0.112 C 
ATOM     14  C   LIG    1      185.006 106.549 150.278  0.00  0.00    +0.047 A 
ATOM     15  C   LIG    1      184.015 107.427 149.911  0.00  0.00    +0.051 A 
ATOM     16  C   LIG    1      184.256 108.672 149.375  0.00  0.00    +0.137 A 
ATOM     17  C   LIG    1      185.562 109.031 149.211  0.00  0.00    +0.026 A 
ATOM     18  C   LIG    1      186.548 108.141 149.583  0.00  0.00    -0.003 A 
ATOM     19  C   LIG    1      186.308 106.896 150.117  0.00  0.00    -0.007 A 
ATOM     20  C   LIG    1      187.374 102.935 149.309  0.00  0.00    +0.213 C 
ATOM     21  C   LIG    1      188.727 103.661 151.345  0.00  0.00    -0.025 C 
ENDROOT
BRANCH  17  22
ATOM     22  C   LIG    1      185.883 110.394 148.657  0.00  0.00    +0.146 C 
ATOM     23  C   LIG    1      185.876 111.465 149.642  0.00  0.00    +0.068 A 
ATOM     24  C   LIG    1      186.205 112.770 149.492  0.00  0.00    -0.005 A 
ATOM     25  C   LIG    1      186.070 113.387 150.722  0.00  0.00    +0.015 A 
ATOM     26  C   LIG    1      185.659 112.437 151.609  0.00  0.00    +0.081 A 
ATOM     27  C   LIG    1      185.415 112.682 152.953  0.00  0.00    +0.019 A 
ATOM     28  C   LIG    1      185.595 113.948 153.429  0.00  0.00    +0.002 A 
ATOM     29  C   LIG    1      186.010 114.923 152.553  0.00  0.00    +0.000 A 
ATOM     30  C   LIG    1      186.251 114.662 151.205  0.00  0.00    +0.001 A 
ATOM     31  C   LIG    1      186.647 113.425 148.186  0.00  0.00    +0.045 C 
ATOM     32  C   LIG    1      185.541 114.310 147.648  0.00  0.00    +0.077 C 
ATOM     33  N   LIG    1      185.105 113.837 146.310  0.00  0.00    -0.270 NA
ATOM     34  C   LIG    1      183.739 114.159 146.082  0.00  0.00    +0.103 C 
ATOM     35  C   LIG    1      182.755 113.072 146.076  0.00  0.00    +0.141 C 
ATOM     36  C   LIG    1      182.959 111.910 146.959  0.00  0.00    +0.033 C 
ATOM     37  C   LIG    1      184.408 112.079 147.703  0.00  0.00    +0.020 C 
ATOM     38  O   LIG    1      182.513 112.570 144.770  0.00  0.00    -0.224 OA
ATOM     39  C   LIG    1      185.154 112.389 146.270  0.00  0.00    +0.072 C 
ATOM     40  N   LIG    1      185.551 111.305 150.942  0.00  0.00    -0.249 NA
ATOM     41  C   LIG    1      184.803 110.541 147.639  0.00  0.00    +0.022 C 
BRANCH  35  42
ATOM     42  C   LIG    1      181.398 113.681 146.486  0.00  0.00    +0.032 C 
ATOM     43  C   LIG    1      181.027 112.803 147.697  0.00  0.00    +0.003 C 
ENDBRANCH  35  42
BRANCH  22  44
ATOM     44  C   LIG    1      187.249 110.230 148.144  0.00  0.00    +0.325 C 
ATOM     45  O   LIG    1      187.360 109.903 146.954  0.00  0.00    -0.249 OA
BRANCH  44  46
ATOM     46  O   LIG    1      188.435 110.393 148.818  0.00  0.00    -0.444 OA
ATOM     47  C   LIG    1      189.605 110.725 148.100  0.00  0.00    +0.256 C 
ENDBRANCH  44  46
ENDBRANCH  22  44
ENDBRANCH  17  22
BRANCH   1  49
ATOM     48  C   LIG    1      189.278 103.245 148.015  0.00  0.00    +0.001 C 
ATOM     49  C   LIG    1      189.663 103.471 149.169  0.00  0.00    +0.009 C 
ENDBRANCH   1  49
BRANCH  10  50
ATOM     50  C   LIG    1      185.616 104.453 148.380  0.00  0.00    +0.350 C 
ATOM     51  O   LIG    1      184.422 104.144 148.071  0.00  0.00    -0.247 OA
BRANCH  50  52
ATOM     52  O   LIG    1      186.043 105.322 147.398  0.00  0.00    -0.443 OA
ATOM     53  C   LIG    1      186.652 105.048 146.180  0.00  0.00    +0.256 C 
ENDBRANCH  50  52
ENDBRANCH  10  50
BRANCH  16  54
ATOM     54  O   LIG    1      183.172 109.514 149.020  0.00  0.00    -0.472 OA
ATOM     55  C   LIG    1      182.141 109.729 149.970  0.00  0.00    +0.252 C 
ENDBRANCH  16  54
BRANCH  20  56
ATOM     56  O   LIG    1      187.172 101.988 150.459  0.00  0.00    -0.449 OA
BRANCH  56  57
ATOM     57  C   LIG    1      187.239 100.649 150.289  0.00  0.00    +0.318 C 
ATOM     58  O   LIG    1      186.984  99.864 151.232  0.00  0.00    -0.250 OA
ATOM     59  C   LIG    1      187.622 100.049 148.973  0.00  0.00    +0.121 C 
ENDBRANCH  56  57
ENDBRANCH  20  56
TORSDOF 10
