REMARK VINA RESULT:      -6.6     68.613     71.799
REMARK  Name = 
REMARK                            x       y       z     vdW  Elec       q    Type
REMARK                         _______ _______ _______ _____ _____    ______ ____
ROOT
ATOM      1  C   LIG    1      187.232 155.553 142.966  0.00  0.00    +0.032 C 
ATOM      2  C   LIG    1      186.341 155.014 144.039  0.00  0.00    -0.006 A 
ATOM      3  C   LIG    1      185.016 154.656 143.758  0.00  0.00    +0.071 A 
ATOM      4  C   LIG    1      184.180 154.156 144.740  0.00  0.00    +0.033 A 
ATOM      5  C   LIG    1      184.665 154.011 146.014  0.00  0.00    +0.075 A 
ATOM      6  C   LIG    1      185.988 154.366 146.306  0.00  0.00    +0.016 A 
ATOM      7  C   LIG    1      186.807 154.862 145.315  0.00  0.00    -0.002 A 
ENDROOT
BRANCH   5   8
ATOM      8  N   LIG    1      183.851 153.507 147.044  0.00  0.00    -0.175 NA
ATOM      9  C   LIG    1      183.638 152.144 147.327  0.00  0.00    +0.269 C 
ATOM     10  O   LIG    1      184.197 151.278 146.632  0.00  0.00    -0.268 OA
BRANCH   9  11
ATOM     11  C   LIG    1      182.758 151.759 148.439  0.00  0.00    +0.055 A 
ATOM     12  C   LIG    1      183.208 151.754 149.741  0.00  0.00    +0.004 A 
ATOM     13  C   LIG    1      182.373 151.388 150.802  0.00  0.00    -0.003 A 
ATOM     14  C   LIG    1      181.071 151.020 150.571  0.00  0.00    -0.006 A 
ATOM     15  C   LIG    1      180.615 151.022 149.275  0.00  0.00    -0.003 A 
ATOM     16  C   LIG    1      181.450 151.388 148.213  0.00  0.00    +0.004 A 
BRANCH  14  17
ATOM     17  C   LIG    1      180.194 150.635 151.692  0.00  0.00    +0.099 C 
BRANCH  17  18
ATOM     18  N   LIG    1      178.825 151.002 151.524  0.00  0.00    -0.267 NA
ATOM     19  C   LIG    1      177.892 149.932 151.815  0.00  0.00    +0.090 C 
ATOM     20  C   LIG    1      177.963 149.524 153.272  0.00  0.00    +0.090 C 
ATOM     21  N   LIG    1      178.214 150.687 154.118  0.00  0.00    -0.269 NA
ATOM     22  C   LIG    1      177.553 150.567 155.383  0.00  0.00    +0.090 C 
ATOM     23  C   LIG    1      177.715 151.901 153.466  0.00  0.00    +0.090 C 
ATOM     24  C   LIG    1      178.580 152.197 152.283  0.00  0.00    +0.090 C 
ENDBRANCH  17  18
ENDBRANCH  14  17
ENDBRANCH   9  11
ENDBRANCH   5   8
BRANCH   3  25
ATOM     25  N   LIG    1      184.602 154.835 142.441  0.00  0.00    -0.178 NA
BRANCH  25  26
ATOM     26  C   LIG    1      183.339 155.123 141.923  0.00  0.00    +0.241 A 
ATOM     27  N   LIG    1      182.677 156.186 142.454  0.00  0.00    -0.212 NA
ATOM     28  C   LIG    1      181.473 156.599 142.081  0.00  0.00    +0.087 A 
ATOM     29  C   LIG    1      180.825 155.890 141.063  0.00  0.00    +0.040 A 
ATOM     30  C   LIG    1      181.490 154.812 140.521  0.00  0.00    +0.103 A 
ATOM     31  N   LIG    1      182.711 154.465 140.961  0.00  0.00    -0.211 NA
BRANCH  28  32
ATOM     32  C   LIG    1      180.797 157.745 142.677  0.00  0.00    +0.037 A 
ATOM     33  C   LIG    1      181.418 158.462 143.674  0.00  0.00    +0.100 A 
ATOM     34  N   LIG    1      180.797 159.540 144.242  0.00  0.00    -0.242 NA
ATOM     35  C   LIG    1      179.590 159.928 143.858  0.00  0.00    +0.099 A 
ATOM     36  C   LIG    1      178.915 159.249 142.862  0.00  0.00    +0.021 A 
ATOM     37  C   LIG    1      179.544 158.148 142.278  0.00  0.00    +0.005 A 
ENDBRANCH  28  32
ENDBRANCH  25  26
ENDBRANCH   3  25
TORSDOF 7
