MODEL 1
REMARK VINA RESULT:      -7.2      0.000      0.000
REMARK  Name = ZINC000000623420
REMARK                            x       y       z     vdW  Elec       q    Type
REMARK                         _______ _______ _______ _____ _____    ______ ____
ROOT
ATOM      1  C   LIG    1      166.666 154.643 150.268  0.00  0.00    +0.102 A 
ATOM      2  C   LIG    1      165.760 153.615 150.046  0.00  0.00    -0.014 A 
ATOM      3  C   LIG    1      164.266 153.743 150.318  0.00  0.00    +0.046 C 
ATOM      4  C   LIG    1      166.361 152.426 149.541  0.00  0.00    +0.091 A 
ATOM      5  C   LIG    1      167.729 152.606 149.349  0.00  0.00    +0.087 A 
ATOM      6  S   LIG    1      168.272 154.177 149.788  0.00  0.00    -0.066 S 
ENDROOT
BRANCH   5   7
ATOM      7  N   LIG    1      168.610 151.640 148.824  0.00  0.00    -0.275 N 
ATOM      8  H   LIG    1      168.879 150.882 149.470  0.00  0.00    +0.156 HD
ATOM      9  C   LIG    1      169.203 151.567 147.576  0.00  0.00    +0.249 C 
ATOM     10  O   LIG    1      169.023 152.459 146.762  0.00  0.00    -0.270 OA
BRANCH   9  11
ATOM     11  C   LIG    1      170.049 150.396 147.333  0.00  0.00    +0.040 A 
ATOM     12  C   LIG    1      169.667 149.377 146.437  0.00  0.00    -0.038 A 
ATOM     13  C   LIG    1      168.360 149.452 145.664  0.00  0.00    +0.044 C 
ATOM     14  C   LIG    1      170.500 148.275 146.248  0.00  0.00    +0.004 A 
ATOM     15  C   LIG    1      171.704 148.171 146.939  0.00  0.00    +0.000 A 
ATOM     16  C   LIG    1      172.089 149.172 147.822  0.00  0.00    +0.001 A 
ATOM     17  C   LIG    1      171.270 150.278 148.016  0.00  0.00    +0.013 A 
ENDBRANCH   9  11
ENDBRANCH   5   7
BRANCH   1  18
ATOM     18  C   LIG    1      166.463 155.969 150.829  0.00  0.00    +0.346 C 
ATOM     19  O   LIG    1      166.318 157.003 150.185  0.00  0.00    -0.244 OA
BRANCH  18  20
ATOM     20  O   LIG    1      166.422 156.082 152.181  0.00  0.00    -0.461 OA
BRANCH  20  22
ATOM     21  C   LIG    1      166.583 158.148 153.295  0.00  0.00    +0.048 C 
ATOM     22  C   LIG    1      165.601 157.068 152.845  0.00  0.00    +0.229 C 
ENDBRANCH  20  22
ENDBRANCH  18  20
ENDBRANCH   1  18
BRANCH   4  23
ATOM     23  C   LIG    1      165.669 151.173 149.271  0.00  0.00    +0.342 C 
ATOM     24  O   LIG    1      165.285 150.377 150.121  0.00  0.00    -0.245 OA
BRANCH  23  25
ATOM     25  O   LIG    1      165.415 150.821 147.972  0.00  0.00    -0.461 OA
BRANCH  25  26
ATOM     26  C   LIG    1      164.615 151.619 147.056  0.00  0.00    +0.229 C 
ATOM     27  C   LIG    1      165.573 152.032 145.939  0.00  0.00    +0.048 C 
ENDBRANCH  25  26
ENDBRANCH  23  25
ENDBRANCH   4  23
TORSDOF 8
ENDMDL
MODEL 2
REMARK VINA RESULT:      -7.2      2.969      8.073
REMARK  Name = ZINC000000623420
REMARK                            x       y       z     vdW  Elec       q    Type
REMARK                         _______ _______ _______ _____ _____    ______ ____
ROOT
ATOM      1  C   LIG    1      170.232 148.898 146.943  0.00  0.00    +0.102 A 
ATOM      2  C   LIG    1      170.146 150.273 146.773  0.00  0.00    -0.014 A 
ATOM      3  C   LIG    1      171.002 151.047 145.778  0.00  0.00    +0.046 C 
ATOM      4  C   LIG    1      169.182 150.891 147.619  0.00  0.00    +0.091 A 
ATOM      5  C   LIG    1      168.520 149.941 148.392  0.00  0.00    +0.087 A 
ATOM      6  S   LIG    1      169.068 148.337 148.108  0.00  0.00    -0.066 S 
ENDROOT
BRANCH   5   7
ATOM      7  N   LIG    1      167.481 150.215 149.304  0.00  0.00    -0.275 N 
ATOM      8  H   LIG    1      167.740 150.176 150.301  0.00  0.00    +0.156 HD
ATOM      9  C   LIG    1      166.147 150.499 149.068  0.00  0.00    +0.249 C 
ATOM     10  O   LIG    1      165.713 150.486 147.927  0.00  0.00    -0.270 OA
BRANCH   9  11
ATOM     11  C   LIG    1      165.329 150.779 150.251  0.00  0.00    +0.040 A 
ATOM     12  C   LIG    1      164.766 152.050 150.481  0.00  0.00    -0.038 A 
ATOM     13  C   LIG    1      164.967 153.194 149.500  0.00  0.00    +0.044 C 
ATOM     14  C   LIG    1      164.005 152.271 151.629  0.00  0.00    +0.004 A 
ATOM     15  C   LIG    1      163.801 151.249 152.550  0.00  0.00    +0.000 A 
ATOM     16  C   LIG    1      164.351 149.992 152.330  0.00  0.00    +0.001 A 
ATOM     17  C   LIG    1      165.107 149.757 151.188  0.00  0.00    +0.013 A 
ENDBRANCH   9  11
ENDBRANCH   5   7
BRANCH   1  18
ATOM     18  C   LIG    1      171.123 147.928 146.326  0.00  0.00    +0.346 C 
ATOM     19  O   LIG    1      172.325 147.820 146.548  0.00  0.00    -0.244 OA
BRANCH  18  20
ATOM     20  O   LIG    1      170.588 147.057 145.433  0.00  0.00    -0.461 OA
BRANCH  20  22
ATOM     21  C   LIG    1      171.498 145.669 143.766  0.00  0.00    +0.048 C 
ATOM     22  C   LIG    1      170.951 147.069 144.035  0.00  0.00    +0.229 C 
ENDBRANCH  20  22
ENDBRANCH  18  20
ENDBRANCH   1  18
BRANCH   4  23
ATOM     23  C   LIG    1      168.917 152.322 147.702  0.00  0.00    +0.342 C 
ATOM     24  O   LIG    1      168.021 152.912 147.109  0.00  0.00    -0.245 OA
BRANCH  23  25
ATOM     25  O   LIG    1      169.718 153.100 148.494  0.00  0.00    -0.461 OA
BRANCH  25  26
ATOM     26  C   LIG    1      169.844 152.934 149.933  0.00  0.00    +0.229 C 
ATOM     27  C   LIG    1      168.551 153.502 150.518  0.00  0.00    +0.048 C 
ENDBRANCH  25  26
ENDBRANCH  23  25
ENDBRANCH   4  23
TORSDOF 8
ENDMDL
MODEL 3
REMARK VINA RESULT:      -7.0      3.411      8.556
REMARK  Name = ZINC000000623420
REMARK                            x       y       z     vdW  Elec       q    Type
REMARK                         _______ _______ _______ _____ _____    ______ ____
ROOT
ATOM      1  C   LIG    1      170.010 147.212 146.309  0.00  0.00    +0.102 A 
ATOM      2  C   LIG    1      170.204 148.324 145.501  0.00  0.00    -0.014 A 
ATOM      3  C   LIG    1      171.075 148.308 144.251  0.00  0.00    +0.046 C 
ATOM      4  C   LIG    1      169.512 149.484 145.953  0.00  0.00    +0.091 A 
ATOM      5  C   LIG    1      168.762 149.199 147.092  0.00  0.00    +0.087 A 
ATOM      6  S   LIG    1      168.910 147.567 147.609  0.00  0.00    -0.066 S 
ENDROOT
BRANCH   5   7
ATOM      7  N   LIG    1      167.930 150.115 147.768  0.00  0.00    -0.275 N 
ATOM      8  H   LIG    1      167.072 150.392 147.268  0.00  0.00    +0.156 HD
ATOM      9  C   LIG    1      168.104 150.731 148.995  0.00  0.00    +0.249 C 
ATOM     10  O   LIG    1      169.127 150.542 149.634  0.00  0.00    -0.270 OA
BRANCH   9  11
ATOM     11  C   LIG    1      167.017 151.611 149.433  0.00  0.00    +0.040 A 
ATOM     12  C   LIG    1      165.948 151.137 150.219  0.00  0.00    -0.038 A 
ATOM     13  C   LIG    1      165.878 149.685 150.666  0.00  0.00    +0.044 C 
ATOM     14  C   LIG    1      164.931 152.010 150.600  0.00  0.00    +0.004 A 
ATOM     15  C   LIG    1      164.960 153.345 150.208  0.00  0.00    +0.000 A 
ATOM     16  C   LIG    1      166.011 153.822 149.436  0.00  0.00    +0.001 A 
ATOM     17  C   LIG    1      167.034 152.963 149.053  0.00  0.00    +0.013 A 
ENDBRANCH   9  11
ENDBRANCH   5   7
BRANCH   1  18
ATOM     18  C   LIG    1      170.586 145.879 146.227  0.00  0.00    +0.346 C 
ATOM     19  O   LIG    1      171.689 145.550 146.650  0.00  0.00    -0.244 OA
BRANCH  18  20
ATOM     20  O   LIG    1      169.842 144.906 145.641  0.00  0.00    -0.461 OA
BRANCH  20  22
ATOM     21  C   LIG    1      170.569 144.342 143.476  0.00  0.00    +0.048 C 
ATOM     22  C   LIG    1      169.426 144.984 144.260  0.00  0.00    +0.229 C 
ENDBRANCH  20  22
ENDBRANCH  18  20
ENDBRANCH   1  18
BRANCH   4  23
ATOM     23  C   LIG    1      169.575 150.805 145.341  0.00  0.00    +0.342 C 
ATOM     24  O   LIG    1      168.663 151.346 144.728  0.00  0.00    -0.245 OA
BRANCH  23  25
ATOM     25  O   LIG    1      170.736 151.525 145.438  0.00  0.00    -0.461 OA
BRANCH  25  26
ATOM     26  C   LIG    1      171.393 151.842 146.696  0.00  0.00    +0.229 C 
ATOM     27  C   LIG    1      170.581 152.991 147.295  0.00  0.00    +0.048 C 
ENDBRANCH  25  26
ENDBRANCH  23  25
ENDBRANCH   4  23
TORSDOF 8
ENDMDL
MODEL 4
REMARK VINA RESULT:      -6.9      3.020      8.381
REMARK  Name = ZINC000000623420
REMARK                            x       y       z     vdW  Elec       q    Type
REMARK                         _______ _______ _______ _____ _____    ______ ____
ROOT
ATOM      1  C   LIG    1      169.318 147.902 145.483  0.00  0.00    +0.102 A 
ATOM      2  C   LIG    1      170.100 148.985 145.104  0.00  0.00    -0.014 A 
ATOM      3  C   LIG    1      171.146 148.915 143.999  0.00  0.00    +0.046 C 
ATOM      4  C   LIG    1      169.831 150.169 145.849  0.00  0.00    +0.091 A 
ATOM      5  C   LIG    1      168.801 149.956 146.762  0.00  0.00    +0.087 A 
ATOM      6  S   LIG    1      168.186 148.351 146.725  0.00  0.00    -0.066 S 
ENDROOT
BRANCH   5   7
ATOM      7  N   LIG    1      168.264 150.932 147.625  0.00  0.00    -0.275 N 
ATOM      8  H   LIG    1      168.463 150.800 148.628  0.00  0.00    +0.156 HD
ATOM      9  C   LIG    1      167.477 152.033 147.336  0.00  0.00    +0.249 C 
ATOM     10  O   LIG    1      167.110 152.238 146.190  0.00  0.00    -0.270 OA
BRANCH   9  11
ATOM     11  C   LIG    1      167.116 152.882 148.474  0.00  0.00    +0.040 A 
ATOM     12  C   LIG    1      165.791 152.964 148.949  0.00  0.00    -0.038 A 
ATOM     13  C   LIG    1      164.671 152.158 148.311  0.00  0.00    +0.044 C 
ATOM     14  C   LIG    1      165.494 153.796 150.028  0.00  0.00    +0.004 A 
ATOM     15  C   LIG    1      166.493 154.550 150.636  0.00  0.00    +0.000 A 
ATOM     16  C   LIG    1      167.801 154.474 150.176  0.00  0.00    +0.001 A 
ATOM     17  C   LIG    1      168.112 153.645 149.105  0.00  0.00    +0.013 A 
ENDBRANCH   9  11
ENDBRANCH   5   7
BRANCH   1  18
ATOM     18  C   LIG    1      169.334 146.524 145.019  0.00  0.00    +0.346 C 
ATOM     19  O   LIG    1      168.643 146.068 144.114  0.00  0.00    -0.244 OA
BRANCH  18  20
ATOM     20  O   LIG    1      170.188 145.663 145.627  0.00  0.00    -0.461 OA
BRANCH  20  22
ATOM     21  C   LIG    1      172.467 145.973 146.122  0.00  0.00    +0.048 C 
ATOM     22  C   LIG    1      171.502 145.382 145.097  0.00  0.00    +0.229 C 
ENDBRANCH  20  22
ENDBRANCH  18  20
ENDBRANCH   1  18
BRANCH   4  23
ATOM     23  C   LIG    1      170.534 151.438 145.712  0.00  0.00    +0.342 C 
ATOM     24  O   LIG    1      170.419 152.214 144.770  0.00  0.00    -0.245 OA
BRANCH  23  25
ATOM     25  O   LIG    1      171.406 151.823 146.695  0.00  0.00    -0.461 OA
BRANCH  25  26
ATOM     26  C   LIG    1      172.569 151.049 147.098  0.00  0.00    +0.229 C 
ATOM     27  C   LIG    1      172.143 150.316 148.370  0.00  0.00    +0.048 C 
ENDBRANCH  25  26
ENDBRANCH  23  25
ENDBRANCH   4  23
TORSDOF 8
ENDMDL
MODEL 5
REMARK VINA RESULT:      -6.8      3.786      8.391
REMARK  Name = ZINC000000623420
REMARK                            x       y       z     vdW  Elec       q    Type
REMARK                         _______ _______ _______ _____ _____    ______ ____
ROOT
ATOM      1  C   LIG    1      170.644 147.544 146.447  0.00  0.00    +0.102 A 
ATOM      2  C   LIG    1      170.155 148.706 145.865  0.00  0.00    -0.014 A 
ATOM      3  C   LIG    1      170.675 149.263 144.545  0.00  0.00    +0.046 C 
ATOM      4  C   LIG    1      169.122 149.330 146.621  0.00  0.00    +0.091 A 
ATOM      5  C   LIG    1      168.821 148.583 147.758  0.00  0.00    +0.087 A 
ATOM      6  S   LIG    1      169.782 147.166 147.910  0.00  0.00    -0.066 S 
ENDROOT
BRANCH   5   7
ATOM      7  N   LIG    1      167.820 148.900 148.698  0.00  0.00    -0.275 N 
ATOM      8  H   LIG    1      166.910 148.435 148.556  0.00  0.00    +0.156 HD
ATOM      9  C   LIG    1      167.857 149.771 149.772  0.00  0.00    +0.249 C 
ATOM     10  O   LIG    1      168.858 150.439 149.982  0.00  0.00    -0.270 OA
BRANCH   9  11
ATOM     11  C   LIG    1      166.642 149.841 150.587  0.00  0.00    +0.040 A 
ATOM     12  C   LIG    1      166.358 148.884 151.582  0.00  0.00    -0.038 A 
ATOM     13  C   LIG    1      167.312 147.737 151.871  0.00  0.00    +0.044 C 
ATOM     14  C   LIG    1      165.181 148.987 152.323  0.00  0.00    +0.004 A 
ATOM     15  C   LIG    1      164.283 150.023 152.086  0.00  0.00    +0.000 A 
ATOM     16  C   LIG    1      164.556 150.972 151.108  0.00  0.00    +0.001 A 
ATOM     17  C   LIG    1      165.727 150.884 150.366  0.00  0.00    +0.013 A 
ENDBRANCH   9  11
ENDBRANCH   5   7
BRANCH   1  18
ATOM     18  C   LIG    1      171.725 146.666 146.028  0.00  0.00    +0.346 C 
ATOM     19  O   LIG    1      172.906 146.793 146.335  0.00  0.00    -0.244 OA
BRANCH  18  20
ATOM     20  O   LIG    1      171.410 145.609 145.238  0.00  0.00    -0.461 OA
BRANCH  20  22
ATOM     21  C   LIG    1      170.978 144.323 143.316  0.00  0.00    +0.048 C 
ATOM     22  C   LIG    1      171.530 145.662 143.800  0.00  0.00    +0.229 C 
ENDBRANCH  20  22
ENDBRANCH  18  20
ENDBRANCH   1  18
BRANCH   4  23
ATOM     23  C   LIG    1      168.466 150.587 146.288  0.00  0.00    +0.342 C 
ATOM     24  O   LIG    1      169.038 151.622 145.966  0.00  0.00    -0.245 OA
BRANCH  23  25
ATOM     25  O   LIG    1      167.098 150.654 146.333  0.00  0.00    -0.461 OA
BRANCH  25  26
ATOM     26  C   LIG    1      166.306 151.601 145.566  0.00  0.00    +0.229 C 
ATOM     27  C   LIG    1      165.416 152.304 146.591  0.00  0.00    +0.048 C 
ENDBRANCH  25  26
ENDBRANCH  23  25
ENDBRANCH   4  23
TORSDOF 8
ENDMDL
MODEL 6
REMARK VINA RESULT:      -6.8      3.089      8.264
REMARK  Name = ZINC000000623420
REMARK                            x       y       z     vdW  Elec       q    Type
REMARK                         _______ _______ _______ _____ _____    ______ ____
ROOT
ATOM      1  C   LIG    1      169.284 147.455 146.686  0.00  0.00    +0.102 A 
ATOM      2  C   LIG    1      169.594 148.565 145.913  0.00  0.00    -0.014 A 
ATOM      3  C   LIG    1      170.492 148.503 144.683  0.00  0.00    +0.046 C 
ATOM      4  C   LIG    1      168.993 149.769 146.379  0.00  0.00    +0.091 A 
ATOM      5  C   LIG    1      168.193 149.524 147.492  0.00  0.00    +0.087 A 
ATOM      6  S   LIG    1      168.185 147.873 147.969  0.00  0.00    -0.066 S 
ENDROOT
BRANCH   5   7
ATOM      7  N   LIG    1      167.427 150.492 148.172  0.00  0.00    -0.275 N 
ATOM      8  H   LIG    1      166.580 150.817 147.681  0.00  0.00    +0.156 HD
ATOM      9  C   LIG    1      167.653 151.104 149.392  0.00  0.00    +0.249 C 
ATOM     10  O   LIG    1      168.671 150.857 150.019  0.00  0.00    -0.270 OA
BRANCH   9  11
ATOM     11  C   LIG    1      166.627 152.051 149.838  0.00  0.00    +0.040 A 
ATOM     12  C   LIG    1      166.861 153.440 149.868  0.00  0.00    -0.038 A 
ATOM     13  C   LIG    1      168.190 154.028 149.422  0.00  0.00    +0.044 C 
ATOM     14  C   LIG    1      165.858 154.300 150.313  0.00  0.00    +0.004 A 
ATOM     15  C   LIG    1      164.629 153.798 150.731  0.00  0.00    +0.000 A 
ATOM     16  C   LIG    1      164.389 152.430 150.701  0.00  0.00    +0.001 A 
ATOM     17  C   LIG    1      165.379 151.562 150.256  0.00  0.00    +0.013 A 
ENDBRANCH   9  11
ENDBRANCH   5   7
BRANCH   1  18
ATOM     18  C   LIG    1      169.743 146.079 146.582  0.00  0.00    +0.346 C 
ATOM     19  O   LIG    1      169.280 145.227 145.830  0.00  0.00    -0.244 OA
BRANCH  18  20
ATOM     20  O   LIG    1      170.776 145.697 147.374  0.00  0.00    -0.461 OA
BRANCH  20  22
ATOM     21  C   LIG    1      172.866 146.242 146.441  0.00  0.00    +0.048 C 
ATOM     22  C   LIG    1      171.965 145.075 146.840  0.00  0.00    +0.229 C 
ENDBRANCH  20  22
ENDBRANCH  18  20
ENDBRANCH   1  18
BRANCH   4  23
ATOM     23  C   LIG    1      169.187 151.094 145.803  0.00  0.00    +0.342 C 
ATOM     24  O   LIG    1      168.869 151.427 144.667  0.00  0.00    -0.245 OA
BRANCH  23  25
ATOM     25  O   LIG    1      169.772 152.069 146.566  0.00  0.00    -0.461 OA
BRANCH  25  26
ATOM     26  C   LIG    1      170.900 151.837 147.455  0.00  0.00    +0.229 C 
ATOM     27  C   LIG    1      172.047 151.401 146.544  0.00  0.00    +0.048 C 
ENDBRANCH  25  26
ENDBRANCH  23  25
ENDBRANCH   4  23
TORSDOF 8
ENDMDL
MODEL 7
REMARK VINA RESULT:      -6.7      2.839      7.848
REMARK  Name = ZINC000000623420
REMARK                            x       y       z     vdW  Elec       q    Type
REMARK                         _______ _______ _______ _____ _____    ______ ____
ROOT
ATOM      1  C   LIG    1      169.552 148.946 147.300  0.00  0.00    +0.102 A 
ATOM      2  C   LIG    1      169.314 150.237 146.849  0.00  0.00    -0.014 A 
ATOM      3  C   LIG    1      169.980 150.826 145.611  0.00  0.00    +0.046 C 
ATOM      4  C   LIG    1      168.388 150.959 147.654  0.00  0.00    +0.091 A 
ATOM      5  C   LIG    1      167.907 150.162 148.690  0.00  0.00    +0.087 A 
ATOM      6  S   LIG    1      168.579 148.580 148.694  0.00  0.00    -0.066 S 
ENDROOT
BRANCH   5   7
ATOM      7  N   LIG    1      166.948 150.559 149.643  0.00  0.00    -0.275 N 
ATOM      8  H   LIG    1      167.324 150.943 150.524  0.00  0.00    +0.156 HD
ATOM      9  C   LIG    1      165.567 150.484 149.594  0.00  0.00    +0.249 C 
ATOM     10  O   LIG    1      165.017 149.968 148.634  0.00  0.00    -0.270 OA
BRANCH   9  11
ATOM     11  C   LIG    1      164.851 151.028 150.751  0.00  0.00    +0.040 A 
ATOM     12  C   LIG    1      164.425 152.371 150.798  0.00  0.00    -0.038 A 
ATOM     13  C   LIG    1      164.675 153.320 149.637  0.00  0.00    +0.044 C 
ATOM     14  C   LIG    1      163.758 152.845 151.926  0.00  0.00    +0.004 A 
ATOM     15  C   LIG    1      163.513 152.005 153.009  0.00  0.00    +0.000 A 
ATOM     16  C   LIG    1      163.927 150.680 152.970  0.00  0.00    +0.001 A 
ATOM     17  C   LIG    1      164.589 150.193 151.849  0.00  0.00    +0.013 A 
ENDBRANCH   9  11
ENDBRANCH   5   7
BRANCH   1  18
ATOM     18  C   LIG    1      170.466 147.929 146.801  0.00  0.00    +0.346 C 
ATOM     19  O   LIG    1      171.462 147.516 147.386  0.00  0.00    -0.244 OA
BRANCH  18  20
ATOM     20  O   LIG    1      170.196 147.378 145.591  0.00  0.00    -0.461 OA
BRANCH  20  22
ATOM     21  C   LIG    1      169.973 145.571 144.102  0.00  0.00    +0.048 C 
ATOM     22  C   LIG    1      169.521 146.109 145.458  0.00  0.00    +0.229 C 
ENDBRANCH  20  22
ENDBRANCH  18  20
ENDBRANCH   1  18
BRANCH   4  23
ATOM     23  C   LIG    1      167.993 152.348 147.457  0.00  0.00    +0.342 C 
ATOM     24  O   LIG    1      168.703 153.324 147.671  0.00  0.00    -0.245 OA
BRANCH  23  25
ATOM     25  O   LIG    1      166.730 152.620 147.002  0.00  0.00    -0.461 OA
BRANCH  25  26
ATOM     26  C   LIG    1      166.094 151.914 145.901  0.00  0.00    +0.229 C 
ATOM     27  C   LIG    1      164.625 152.334 145.949  0.00  0.00    +0.048 C 
ENDBRANCH  25  26
ENDBRANCH  23  25
ENDBRANCH   4  23
TORSDOF 8
ENDMDL
MODEL 8
REMARK VINA RESULT:      -6.6      4.581      7.526
REMARK  Name = ZINC000000623420
REMARK                            x       y       z     vdW  Elec       q    Type
REMARK                         _______ _______ _______ _____ _____    ______ ____
ROOT
ATOM      1  C   LIG    1      169.029 149.721 146.331  0.00  0.00    +0.102 A 
ATOM      2  C   LIG    1      170.164 149.215 145.713  0.00  0.00    -0.014 A 
ATOM      3  C   LIG    1      170.885 149.929 144.576  0.00  0.00    +0.046 C 
ATOM      4  C   LIG    1      170.591 147.964 146.244  0.00  0.00    +0.091 A 
ATOM      5  C   LIG    1      169.773 147.570 147.300  0.00  0.00    +0.087 A 
ATOM      6  S   LIG    1      168.508 148.685 147.628  0.00  0.00    -0.066 S 
ENDROOT
BRANCH   5   7
ATOM      7  N   LIG    1      169.945 146.401 148.069  0.00  0.00    -0.275 N 
ATOM      8  H   LIG    1      170.673 146.449 148.798  0.00  0.00    +0.156 HD
ATOM      9  C   LIG    1      169.306 145.178 147.976  0.00  0.00    +0.249 C 
ATOM     10  O   LIG    1      168.486 144.983 147.091  0.00  0.00    -0.270 OA
BRANCH   9  11
ATOM     11  C   LIG    1      169.695 144.171 148.966  0.00  0.00    +0.040 A 
ATOM     12  C   LIG    1      170.681 143.201 148.692  0.00  0.00    -0.038 A 
ATOM     13  C   LIG    1      171.404 143.165 147.356  0.00  0.00    +0.044 C 
ATOM     14  C   LIG    1      171.008 142.256 149.663  0.00  0.00    +0.004 A 
ATOM     15  C   LIG    1      170.366 142.257 150.898  0.00  0.00    +0.000 A 
ATOM     16  C   LIG    1      169.394 143.210 151.176  0.00  0.00    +0.001 A 
ATOM     17  C   LIG    1      169.063 144.162 150.220  0.00  0.00    +0.013 A 
ENDBRANCH   9  11
ENDBRANCH   5   7
BRANCH   1  18
ATOM     18  C   LIG    1      168.255 150.918 146.042  0.00  0.00    +0.346 C 
ATOM     19  O   LIG    1      167.265 150.971 145.320  0.00  0.00    -0.244 OA
BRANCH  18  20
ATOM     20  O   LIG    1      168.650 152.080 146.622  0.00  0.00    -0.461 OA
BRANCH  20  22
ATOM     21  C   LIG    1      170.842 152.877 146.930  0.00  0.00    +0.048 C 
ATOM     22  C   LIG    1      169.701 152.126 147.612  0.00  0.00    +0.229 C 
ENDBRANCH  20  22
ENDBRANCH  18  20
ENDBRANCH   1  18
BRANCH   4  23
ATOM     23  C   LIG    1      171.713 147.172 145.756  0.00  0.00    +0.342 C 
ATOM     24  O   LIG    1      172.745 146.947 146.377  0.00  0.00    -0.245 OA
BRANCH  23  25
ATOM     25  O   LIG    1      171.642 146.624 144.503  0.00  0.00    -0.461 OA
BRANCH  25  26
ATOM     26  C   LIG    1      171.280 145.241 144.241  0.00  0.00    +0.229 C 
ATOM     27  C   LIG    1      169.795 145.276 143.877  0.00  0.00    +0.048 C 
ENDBRANCH  25  26
ENDBRANCH  23  25
ENDBRANCH   4  23
TORSDOF 8
ENDMDL
MODEL 9
REMARK VINA RESULT:      -6.4      5.425      8.826
REMARK  Name = ZINC000000623420
REMARK                            x       y       z     vdW  Elec       q    Type
REMARK                         _______ _______ _______ _____ _____    ______ ____
ROOT
ATOM      1  C   LIG    1      167.496 144.403 147.432  0.00  0.00    +0.102 A 
ATOM      2  C   LIG    1      167.758 144.738 146.111  0.00  0.00    -0.014 A 
ATOM      3  C   LIG    1      167.539 143.779 144.946  0.00  0.00    +0.046 C 
ATOM      4  C   LIG    1      168.251 146.063 145.947  0.00  0.00    +0.091 A 
ATOM      5  C   LIG    1      168.310 146.724 147.172  0.00  0.00    +0.087 A 
ATOM      6  S   LIG    1      167.793 145.751 148.490  0.00  0.00    -0.066 S 
ENDROOT
BRANCH   5   7
ATOM      7  N   LIG    1      168.716 148.061 147.356  0.00  0.00    -0.275 N 
ATOM      8  H   LIG    1      167.968 148.768 147.290  0.00  0.00    +0.156 HD
ATOM      9  C   LIG    1      169.978 148.581 147.581  0.00  0.00    +0.249 C 
ATOM     10  O   LIG    1      170.950 147.841 147.592  0.00  0.00    -0.270 OA
BRANCH   9  11
ATOM     11  C   LIG    1      170.053 150.031 147.771  0.00  0.00    +0.040 A 
ATOM     12  C   LIG    1      170.325 150.908 146.701  0.00  0.00    -0.038 A 
ATOM     13  C   LIG    1      170.539 150.389 145.289  0.00  0.00    +0.044 C 
ATOM     14  C   LIG    1      170.399 152.280 146.935  0.00  0.00    +0.004 A 
ATOM     15  C   LIG    1      170.211 152.792 148.215  0.00  0.00    +0.000 A 
ATOM     16  C   LIG    1      169.940 151.935 149.275  0.00  0.00    +0.001 A 
ATOM     17  C   LIG    1      169.859 150.566 149.055  0.00  0.00    +0.013 A 
ENDBRANCH   9  11
ENDBRANCH   5   7
BRANCH   1  18
ATOM     18  C   LIG    1      167.050 143.145 148.012  0.00  0.00    +0.346 C 
ATOM     19  O   LIG    1      167.726 142.408 148.723  0.00  0.00    -0.244 OA
BRANCH  18  20
ATOM     20  O   LIG    1      165.777 142.750 147.760  0.00  0.00    -0.461 OA
BRANCH  20  22
ATOM     21  C   LIG    1      164.060 143.572 146.379  0.00  0.00    +0.048 C 
ATOM     22  C   LIG    1      164.668 143.674 147.776  0.00  0.00    +0.229 C 
ENDBRANCH  20  22
ENDBRANCH  18  20
ENDBRANCH   1  18
BRANCH   4  23
ATOM     23  C   LIG    1      168.666 146.667 144.687  0.00  0.00    +0.342 C 
ATOM     24  O   LIG    1      167.909 147.057 143.805  0.00  0.00    -0.245 OA
BRANCH  23  25
ATOM     25  O   LIG    1      170.003 146.821 144.434  0.00  0.00    -0.461 OA
BRANCH  25  26
ATOM     26  C   LIG    1      170.766 145.958 143.547  0.00  0.00    +0.229 C 
ATOM     27  C   LIG    1      171.214 144.783 144.417  0.00  0.00    +0.048 C 
ENDBRANCH  25  26
ENDBRANCH  23  25
ENDBRANCH   4  23
TORSDOF 8
ENDMDL
