REMARK VINA RESULT:      -7.2     78.218     79.585
REMARK  Name = ZINC000006087141
REMARK                            x       y       z     vdW  Elec       q    Type
REMARK                         _______ _______ _______ _____ _____    ______ ____
ROOT
ATOM      1  C   LIG    1      196.054  90.004 158.227  0.00  0.00    +0.222 C 
ENDROOT
BRANCH   1   2
ATOM      2  N   LIG    1      197.523  90.204 158.277  0.00  0.00    -0.290 N 
ATOM      3  C   LIG    1      198.092  91.351 157.751  0.00  0.00    +0.262 A 
ATOM      4  O   LIG    1      197.337  92.161 157.211  0.00  0.00    -0.267 OA
ATOM      5  C   LIG    1      199.520  91.526 157.881  0.00  0.00    +0.068 A 
ATOM      6  C   LIG    1      200.176  92.660 157.376  0.00  0.00    +0.035 A 
ATOM      7  C   LIG    1      201.553  92.789 157.523  0.00  0.00    +0.043 A 
ATOM      8 CL   LIG    1      202.356  94.190 156.904  0.00  0.00    -0.083 Cl
ATOM      9  C   LIG    1      202.290  91.795 158.170  0.00  0.00    +0.042 A 
ATOM     10  C   LIG    1      201.646  90.671 158.673  0.00  0.00    +0.068 A 
ATOM     11 CL   LIG    1      202.595  89.456 159.471  0.00  0.00    -0.081 Cl
ATOM     12  C   LIG    1      200.247  90.525 158.538  0.00  0.00    +0.096 A 
ATOM     13  N   LIG    1      199.568  89.404 159.054  0.00  0.00    -0.235 NA
ATOM     14  C   LIG    1      198.303  89.268 158.935  0.00  0.00    +0.203 A 
ENDBRANCH   1   2
BRANCH   1  17
ATOM     15  N   LIG    1      195.214  90.194 155.919  0.00  0.00    -0.281 N 
ATOM     16  H   LIG    1      194.993  91.161 156.230  0.00  0.00    +0.155 HD
ATOM     17  C   LIG    1      195.739  89.373 156.883  0.00  0.00    +0.237 C 
ATOM     18  O   LIG    1      195.882  88.182 156.695  0.00  0.00    -0.274 OA
BRANCH  15  20
ATOM     19  C   LIG    1      193.381  89.877 154.397  0.00  0.00    +0.141 A 
ATOM     20  C   LIG    1      194.766  89.883 154.607  0.00  0.00    +0.076 A 
ATOM     21  C   LIG    1      195.636  89.613 153.548  0.00  0.00    +0.030 A 
ATOM     22  C   LIG    1      195.120  89.318 152.285  0.00  0.00    -0.048 A 
ATOM     23  C   LIG    1      196.059  89.027 151.135  0.00  0.00    +0.044 C 
ATOM     24  C   LIG    1      193.739  89.311 152.083  0.00  0.00    +0.007 A 
ATOM     25  C   LIG    1      192.866  89.590 153.134  0.00  0.00    +0.048 A 
BRANCH  19  27
ATOM     26  C   LIG    1      191.720  89.204 156.168  0.00  0.00    +0.277 C 
ATOM     27  O   LIG    1      192.547  90.166 155.476  0.00  0.00    -0.493 OA
ENDBRANCH  19  27
ENDBRANCH  15  20
ENDBRANCH   1  17
TORSDOF 4
