REMARK VINA RESULT:      -8.6     17.826     20.197
REMARK  Name = 
REMARK                            x       y       z     vdW  Elec       q    Type
REMARK                         _______ _______ _______ _____ _____    ______ ____
ROOT
ATOM      1  C   LIG    1      205.712  96.752 160.598  0.00  0.00    +0.243 C 
ATOM      2  C   LIG    1      204.749  97.437 161.677  0.00  0.00    +0.196 C 
ATOM      3  O   LIG    1      205.429  97.113 162.574  0.00  0.00    -0.292 OA
ATOM      4  C   LIG    1      203.616  98.152 161.984  0.00  0.00    +0.090 C 
ATOM      5  C   LIG    1      202.569  98.579 160.948  0.00  0.00    +0.093 C 
ATOM      6  C   LIG    1      201.717  99.614 161.808  0.00  0.00    +0.191 C 
ATOM      7  C   LIG    1      200.592  98.626 162.325  0.00  0.00    +0.157 C 
ATOM      8  C   LIG    1      201.611  97.873 163.427  0.00  0.00    +0.067 C 
ATOM      9  O   LIG    1      200.241  99.655 163.344  0.00  0.00    -0.349 OA
ATOM     10  C   LIG    1      201.652  99.748 163.239  0.00  0.00    +0.185 C 
ATOM     11  C   LIG    1      201.504  97.627 160.374  0.00  0.00    +0.201 C 
ATOM     12  C   LIG    1      202.142  96.430 159.557  0.00  0.00    +0.170 C 
ATOM     13  C   LIG    1      203.394  96.979 158.930  0.00  0.00    +0.048 C 
ATOM     14  C   LIG    1      203.658  96.307 157.521  0.00  0.00    +0.007 C 
ATOM     15  C   LIG    1      203.458  98.405 158.611  0.00  0.00    +0.007 C 
ATOM     16  O   LIG    1      201.470  96.253 158.355  0.00  0.00    -0.222 OA
ATOM     17  C   LIG    1      202.202  95.112 160.176  0.00  0.00    +0.082 C 
ATOM     18  C   LIG    1      203.224  94.549 158.980  0.00  0.00    +0.189 C 
ATOM     19  C   LIG    1      204.518  95.084 159.821  0.00  0.00    -0.009 C 
ATOM     20  C   LIG    1      205.424  94.277 160.529  0.00  0.00    +0.029 C 
ATOM     21  C   LIG    1      203.993  98.971 163.090  0.00  0.00    +0.010 C 
ATOM     22  C   LIG    1      202.555  97.002 162.470  0.00  0.00    +0.161 C 
ATOM     23  O   LIG    1      203.341  96.454 163.629  0.00  0.00    -0.223 OA
ATOM     24  C   LIG    1      204.437  96.379 159.686  0.00  0.00    -0.000 C 
ENDROOT
BRANCH   1  25
ATOM     25  O   LIG    1      206.042  98.031 159.826  0.00  0.00    -0.440 OA
BRANCH  25  27
ATOM     26  C   LIG    1      208.145  96.804 159.264  0.00  0.00    +0.121 C 
ATOM     27  C   LIG    1      207.129  97.821 158.994  0.00  0.00    +0.318 C 
ATOM     28  O   LIG    1      207.329  98.484 157.945  0.00  0.00    -0.250 OA
ENDBRANCH  25  27
ENDBRANCH   1  25
BRANCH   6  29
ATOM     29  O   LIG    1      201.613 100.807 161.344  0.00  0.00    -0.451 OA
BRANCH  29  30
ATOM     30  C   LIG    1      202.351 101.678 160.670  0.00  0.00    +0.317 C 
ATOM     31  O   LIG    1      203.263 102.325 161.225  0.00  0.00    -0.250 OA
ATOM     32  C   LIG    1      202.232 102.026 159.210  0.00  0.00    +0.121 C 
ENDBRANCH  29  30
ENDBRANCH   6  29
BRANCH  11  33
ATOM     33  O   LIG    1      200.829  98.349 159.412  0.00  0.00    -0.446 OA
BRANCH  33  34
ATOM     34  C   LIG    1      200.231  98.985 158.560  0.00  0.00    +0.341 C 
ATOM     35  O   LIG    1      199.261  99.418 159.233  0.00  0.00    -0.245 OA
BRANCH  34  36
ATOM     36  C   LIG    1      200.168  99.428 157.185  0.00  0.00    +0.076 A 
ATOM     37  C   LIG    1      200.682  98.606 156.153  0.00  0.00    +0.006 A 
ATOM     38  C   LIG    1      200.633  98.991 154.842  0.00  0.00    +0.000 A 
ATOM     39  C   LIG    1      200.086 100.190 154.455  0.00  0.00    +0.000 A 
ATOM     40  C   LIG    1      199.566 101.036 155.442  0.00  0.00    +0.000 A 
ATOM     41  C   LIG    1      199.647 100.588 156.742  0.00  0.00    +0.006 A 
ENDBRANCH  34  36
ENDBRANCH  33  34
ENDBRANCH  11  33
BRANCH  18  42
ATOM     42  O   LIG    1      203.339  93.098 159.406  0.00  0.00    -0.446 OA
BRANCH  42  43
ATOM     43  C   LIG    1      202.795  92.327 158.488  0.00  0.00    +0.350 C 
ATOM     44  O   LIG    1      202.182  91.278 158.781  0.00  0.00    -0.247 OA
BRANCH  43  45
ATOM     45  C   LIG    1      202.836  92.614 156.899  0.00  0.00    +0.273 C 
ATOM     46  O   LIG    1      201.729  91.687 156.517  0.00  0.00    -0.209 OA
BRANCH  45  47
ATOM     47  C   LIG    1      204.070  91.437 156.688  0.00  0.00    +0.159 C 
BRANCH  47  48
ATOM     48  C   LIG    1      205.318  92.359 156.815  0.00  0.00    +0.000 A 
ATOM     49  C   LIG    1      206.258  91.856 157.672  0.00  0.00    -0.003 A 
ATOM     50  C   LIG    1      207.439  92.520 157.928  0.00  0.00    -0.000 A 
ATOM     51  C   LIG    1      207.637  93.713 157.284  0.00  0.00    -0.000 A 
ATOM     52  C   LIG    1      206.708  94.226 156.426  0.00  0.00    -0.000 A 
ATOM     53  C   LIG    1      205.542  93.505 156.216  0.00  0.00    -0.003 A 
ENDBRANCH  47  48
BRANCH  47  54
ATOM     54  N   LIG    1      203.896  91.406 155.161  0.00  0.00    -0.196 NA
ATOM     55  C   LIG    1      204.432  90.491 154.338  0.00  0.00    +0.265 C 
ATOM     56  O   LIG    1      205.137  89.569 154.802  0.00  0.00    -0.268 OA
BRANCH  55  57
ATOM     57  C   LIG    1      204.200  90.561 152.903  0.00  0.00    +0.055 A 
ATOM     58  C   LIG    1      203.381  89.658 152.257  0.00  0.00    +0.005 A 
ATOM     59  C   LIG    1      203.207  89.780 150.902  0.00  0.00    +0.000 A 
ATOM     60  C   LIG    1      203.818  90.770 150.156  0.00  0.00    +0.000 A 
ATOM     61  C   LIG    1      204.635  91.668 150.818  0.00  0.00    +0.000 A 
ATOM     62  C   LIG    1      204.804  91.540 152.171  0.00  0.00    +0.005 A 
ENDBRANCH  55  57
ENDBRANCH  47  54
ENDBRANCH  45  47
ENDBRANCH  43  45
ENDBRANCH  42  43
ENDBRANCH  18  42
TORSDOF 14
