REMARK VINA RESULT:      -7.5     44.955     48.170
REMARK  Name = ZINC000000622958
REMARK                            x       y       z     vdW  Elec       q    Type
REMARK                         _______ _______ _______ _____ _____    ______ ____
ROOT
ATOM      1  C   LIG    1      206.049 113.411 146.866  0.00  0.00    +0.271 C 
ATOM      2  N   LIG    1      206.662 113.133 145.591  0.00  0.00    -0.157 N 
ATOM      3  C   LIG    1      207.527 112.146 145.654  0.00  0.00    +0.250 C 
ATOM      4  C   LIG    1      208.343 111.617 144.483  0.00  0.00    +0.124 C 
ATOM      5  C   LIG    1      207.785 110.222 144.117  0.00  0.00    +0.012 C 
ATOM      6  C   LIG    1      208.321 109.172 145.109  0.00  0.00    +0.004 C 
ATOM      7  C   LIG    1      207.797 109.273 146.557  0.00  0.00    +0.045 C 
ATOM      8  C   LIG    1      208.405 110.504 147.257  0.00  0.00    +0.236 C 
ATOM      9  N   LIG    1      207.575 111.653 146.865  0.00  0.00    -0.258 N 
ATOM     10  C   LIG    1      206.604 112.291 147.782  0.00  0.00    +0.323 C 
ENDROOT
BRANCH   1  11
ATOM     11  C   LIG    1      204.520 113.369 146.773  0.00  0.00    +0.034 A 
ATOM     12  C   LIG    1      203.808 114.560 146.543  0.00  0.00    +0.060 A 
ATOM     13  C   LIG    1      202.426 114.509 146.469  0.00  0.00    +0.167 A 
ATOM     14  O   LIG    1      201.587 115.546 146.261  0.00  0.00    -0.453 OA
ATOM     15  C   LIG    1      200.217 114.971 146.269  0.00  0.00    +0.466 C 
ATOM     16  O   LIG    1      200.410 113.520 146.499  0.00  0.00    -0.453 OA
ATOM     17  C   LIG    1      201.742 113.330 146.609  0.00  0.00    +0.166 A 
ATOM     18  C   LIG    1      202.409 112.136 146.833  0.00  0.00    +0.050 A 
ATOM     19  C   LIG    1      203.804 112.161 146.916  0.00  0.00    +0.014 A 
ENDBRANCH   1  11
BRANCH   2  20
ATOM     20  C   LIG    1      206.301 113.818 144.402  0.00  0.00    +0.124 A 
ATOM     21  C   LIG    1      205.346 113.264 143.549  0.00  0.00    +0.050 A 
ATOM     22  C   LIG    1      204.990 113.951 142.392  0.00  0.00    +0.024 A 
ATOM     23  C   LIG    1      205.587 115.182 142.099  0.00  0.00    +0.041 A 
ATOM     24 CL   LIG    1      205.140 116.033 140.661  0.00  0.00    -0.084 Cl
ATOM     25  C   LIG    1      206.543 115.728 142.962  0.00  0.00    +0.024 A 
ATOM     26  C   LIG    1      206.903 115.045 144.119  0.00  0.00    +0.050 A 
ENDBRANCH   2  20
BRANCH   1  27
ATOM     27  O   LIG    1      206.549 114.677 147.274  0.00  0.00    -0.347 OA
ATOM     28  H   LIG    1      206.019 115.361 146.839  0.00  0.00    +0.215 HD
ENDBRANCH   1  27
TORSDOF 3
