REMARK VINA RESULT:     -11.4      1.673      6.930
REMARK  Name = 
REMARK                            x       y       z     vdW  Elec       q    Type
REMARK                         _______ _______ _______ _____ _____    ______ ____
ROOT
ATOM      1  C   LIG    1      166.041 115.873 183.614  0.00  0.00    +0.046 C 
ATOM      2  C   LIG    1      165.845 116.603 183.955  0.00  0.00    +0.024 C 
ATOM      3  C   LIG    1      165.254 115.985 185.021  0.00  0.00    +0.072 C 
ATOM      4  N   LIG    1      165.428 115.208 184.722  0.00  0.00    -0.274 NA
ATOM      5  C   LIG    1      165.218 114.510 185.106  0.00  0.00    +0.098 C 
ATOM      6  C   LIG    1      165.415 113.785 184.765  0.00  0.00    -0.013 C 
ATOM      7  C   LIG    1      165.817 113.758 184.046  0.00  0.00    -0.025 C 
ATOM      8  C   LIG    1      166.023 114.453 183.667  0.00  0.00    +0.067 C 
ATOM      9  C   LIG    1      166.430 114.423 182.938  0.00  0.00    +0.212 C 
ATOM     10  C   LIG    1      166.638 115.120 182.557  0.00  0.00    +0.263 C 
ATOM     11  O   LIG    1      166.830 114.395 182.224  0.00  0.00    -0.209 OA
ATOM     12  C   LIG    1      165.832 115.180 183.998  0.00  0.00    +0.087 C 
ATOM     13  C   LIG    1      166.447 115.847 182.888  0.00  0.00    +0.145 C 
ATOM     14  N   LIG    1      166.656 116.545 182.503  0.00  0.00    -0.255 N 
ATOM     15  C   LIG    1      167.059 116.518 181.784  0.00  0.00    +0.307 C 
ATOM     16  O   LIG    1      167.266 117.224 181.402  0.00  0.00    -0.265 OA
ATOM     17  C   LIG    1      166.460 117.270 182.845  0.00  0.00    +0.053 A 
ATOM     18  C   LIG    1      166.679 117.937 182.442  0.00  0.00    +0.051 A 
ATOM     19  C   LIG    1      166.494 118.678 182.763  0.00  0.00    +0.137 A 
ATOM     20  C   LIG    1      166.095 118.731 183.477  0.00  0.00    +0.026 A 
ATOM     21  C   LIG    1      165.874 118.049 183.881  0.00  0.00    -0.003 A 
ATOM     22  C   LIG    1      166.057 117.300 183.566  0.00  0.00    -0.007 A 
ENDROOT
BRANCH  20  23
ATOM     23  C   LIG    1      165.636 120.584 184.271  0.00  0.00    +0.146 C 
ATOM     24  C   LIG    1      166.292 120.512 184.774  0.00  0.00    +0.022 C 
ATOM     25  C   LIG    1      166.694 119.802 184.659  0.00  0.00    +0.020 C 
ATOM     26  C   LIG    1      167.372 119.529 185.053  0.00  0.00    +0.033 C 
ATOM     27  C   LIG    1      167.806 119.890 185.646  0.00  0.00    +0.141 C 
ATOM     28  O   LIG    1      168.625 119.823 186.289  0.00  0.00    -0.224 OA
ATOM     29  C   LIG    1      167.676 120.621 186.002  0.00  0.00    +0.103 C 
ATOM     30  N   LIG    1      167.077 121.171 185.849  0.00  0.00    -0.270 NA
ATOM     31  C   LIG    1      166.463 121.124 185.306  0.00  0.00    +0.077 C 
ATOM     32  C   LIG    1      165.987 121.799 185.337  0.00  0.00    +0.045 C 
ATOM     33  C   LIG    1      165.337 121.865 184.835  0.00  0.00    -0.005 A 
ATOM     34  C   LIG    1      164.215 122.610 184.369  0.00  0.00    +0.015 A 
ATOM     35  C   LIG    1      164.037 122.006 183.836  0.00  0.00    +0.081 A 
ATOM     36  C   LIG    1      163.389 122.066 183.332  0.00  0.00    +0.019 A 
ATOM     37  C   LIG    1      162.913 122.742 183.363  0.00  0.00    +0.002 A 
ATOM     38  C   LIG    1      163.090 123.347 183.896  0.00  0.00    +0.000 A 
ATOM     39  N   LIG    1      164.512 121.327 183.803  0.00  0.00    -0.249 NA
ATOM     40  C   LIG    1      163.737 123.283 184.397  0.00  0.00    +0.001 A 
ATOM     41  C   LIG    1      167.213 120.311 185.417  0.00  0.00    +0.072 C 
ATOM     42  C   LIG    1      165.159 121.261 184.302  0.00  0.00    +0.068 A 
BRANCH  23  43
ATOM     43  C   LIG    1      164.949 120.146 183.418  0.00  0.00    +0.325 C 
ATOM     44  O   LIG    1      165.091 120.345 182.637  0.00  0.00    -0.249 OA
BRANCH  43  45
ATOM     45  O   LIG    1      164.330 119.641 183.609  0.00  0.00    -0.444 OA
ATOM     46  C   LIG    1      163.714 119.531 183.079  0.00  0.00    +0.256 C 
ENDBRANCH  43  45
ENDBRANCH  23  43
BRANCH  27  47
ATOM     47  C   LIG    1      168.142 119.162 185.464  0.00  0.00    +0.032 C 
ATOM     48  C   LIG    1      168.739 118.696 185.792  0.00  0.00    +0.003 C 
ENDBRANCH  27  47
ENDBRANCH  20  23
BRANCH  10  49
ATOM     49  C   LIG    1      167.257 115.087 181.450  0.00  0.00    +0.350 C 
ATOM     50  O   LIG    1      168.002 115.186 181.380  0.00  0.00    -0.247 OA
BRANCH  49  51
ATOM     51  O   LIG    1      166.824 114.949 180.751  0.00  0.00    -0.443 OA
ATOM     52  C   LIG    1      167.212 114.954 180.085  0.00  0.00    +0.256 C 
ENDBRANCH  49  51
ENDBRANCH  10  49
BRANCH   8  53
ATOM     53  C   LIG    1      166.217 113.730 183.330  0.00  0.00    +0.009 C 
ATOM     54  C   LIG    1      165.716 113.084 183.445  0.00  0.00    +0.000 C 
ENDBRANCH   8  53
BRANCH  19  55
ATOM     55  O   LIG    1      166.709 119.401 182.368  0.00  0.00    -0.472 OA
ATOM     56  C   LIG    1      167.462 119.413 181.762  0.00  0.00    +0.252 C 
ENDBRANCH  19  55
BRANCH   9  57
ATOM     57  O   LIG    1      166.622 113.698 182.605  0.00  0.00    -0.449 OA
BRANCH  57  58
ATOM     58  C   LIG    1      167.201 113.390 182.771  0.00  0.00    +0.318 C 
ATOM     59  C   LIG    1      167.315 112.754 182.577  0.00  0.00    +0.121 C 
ATOM     60  O   LIG    1      167.664 113.723 183.133  0.00  0.00    -0.250 OA
ENDBRANCH  57  58
ENDBRANCH   9  57
TORSDOF 10
