REMARK VINA RESULT:      -6.1      6.671     11.143
REMARK  Name = ZINC000022625070
REMARK                            x       y       z     vdW  Elec       q    Type
REMARK                         _______ _______ _______ _____ _____    ______ ____
ROOT
ATOM      1  C   LIG    1      195.168 118.765 141.222  0.00  0.00    +0.171 A 
ATOM      2  C   LIG    1      195.809 119.992 141.389  0.00  0.00    +0.032 A 
ATOM      3  C   LIG    1      196.983 120.447 142.239  0.00  0.00    +0.046 C 
ATOM      4  C   LIG    1      197.695 121.615 141.501  0.00  0.00    +0.040 C 
ATOM      5  C   LIG    1      196.693 122.673 141.015  0.00  0.00    -0.036 A 
ATOM      6  C   LIG    1      195.434 122.274 140.535  0.00  0.00    +0.027 A 
ATOM      7  C   LIG    1      194.551 123.219 140.007  0.00  0.00    +0.057 A 
ATOM      8  C   LIG    1      194.925 124.562 139.981  0.00  0.00    +0.121 A 
ATOM      9  C   LIG    1      196.164 124.968 140.471  0.00  0.00    +0.046 A 
ATOM     10  C   LIG    1      197.048 124.021 140.981  0.00  0.00    +0.008 A 
ATOM     11  C   LIG    1      195.118 120.871 140.650  0.00  0.00    +0.171 A 
ATOM     12  O   LIG    1      194.110 120.211 140.067  0.00  0.00    -0.354 OA
ATOM     13  N   LIG    1      194.143 118.928 140.415  0.00  0.00    -0.073 NA
ENDROOT
BRANCH   1  16
ATOM     14  N   LIG    1      196.575 116.783 141.287  0.00  0.00    -0.307 N 
ATOM     15  H   LIG    1      196.977 117.176 140.427  0.00  0.00    +0.149 HD
ATOM     16  C   LIG    1      195.539 117.486 141.839  0.00  0.00    +0.266 C 
ATOM     17  O   LIG    1      194.976 116.997 142.817  0.00  0.00    -0.268 OA
BRANCH  14  18
ATOM     18  C   LIG    1      196.908 115.417 141.643  0.00  0.00    +0.070 C 
ATOM     19  C   LIG    1      198.206 115.489 142.447  0.00  0.00    +0.028 C 
BRANCH  18  20
ATOM     20  C   LIG    1      197.034 114.602 140.343  0.00  0.00    +0.023 C 
BRANCH  20  21
ATOM     21  C   LIG    1      195.953 113.521 140.117  0.00  0.00    +0.017 C 
BRANCH  21  22
ATOM     22  C   LIG    1      194.935 114.122 139.118  0.00  0.00    +0.084 C 
BRANCH  22  23
ATOM     23  N   LIG    1      195.168 113.570 137.758  0.00  0.00    -0.303 NA
BRANCH  23  25
ATOM     24  C   LIG    1      193.028 114.597 137.642  0.00  0.00    +0.020 C 
ATOM     25  C   LIG    1      193.994 113.698 136.865  0.00  0.00    +0.081 C 
ENDBRANCH  23  25
BRANCH  23  26
ATOM     26  C   LIG    1      196.427 114.033 137.143  0.00  0.00    +0.081 C 
ATOM     27  C   LIG    1      196.031 114.559 135.759  0.00  0.00    +0.020 C 
ENDBRANCH  23  26
ENDBRANCH  22  23
ENDBRANCH  21  22
ENDBRANCH  20  21
ENDBRANCH  18  20
ENDBRANCH  14  18
ENDBRANCH   1  16
BRANCH   8  28
ATOM     28  O   LIG    1      194.098 125.541 139.479  0.00  0.00    -0.495 OA
ATOM     29  C   LIG    1      194.545 126.754 138.831  0.00  0.00    +0.277 C 
ENDBRANCH   8  28
TORSDOF 9
