REMARK VINA RESULT:      -8.0      0.000      0.000
REMARK  Name = ZINC000000622956
REMARK                            x       y       z     vdW  Elec       q    Type
REMARK                         _______ _______ _______ _____ _____    ______ ____
ROOT
ATOM      1  C   LIG    1      168.947 149.121 146.163  0.00  0.00    +0.271 C 
ATOM      2  N   LIG    1      169.405 149.092 147.531  0.00  0.00    -0.157 N 
ATOM      3  C   LIG    1      170.054 150.186 147.862  0.00  0.00    +0.250 C 
ATOM      4  C   LIG    1      170.630 150.481 149.240  0.00  0.00    +0.124 C 
ATOM      5  C   LIG    1      169.770 151.596 149.877  0.00  0.00    +0.012 C 
ATOM      6  C   LIG    1      170.173 152.963 149.293  0.00  0.00    +0.004 C 
ATOM      7  C   LIG    1      169.820 153.198 147.809  0.00  0.00    +0.045 C 
ATOM      8  C   LIG    1      170.732 152.346 146.905  0.00  0.00    +0.236 C 
ATOM      9  N   LIG    1      170.124 151.010 146.849  0.00  0.00    -0.258 N 
ATOM     10  C   LIG    1      169.426 150.500 145.650  0.00  0.00    +0.323 C 
ENDROOT
BRANCH   1  11
ATOM     11  C   LIG    1      169.554 147.979 145.340  0.00  0.00    +0.034 A 
ATOM     12  C   LIG    1      168.870 146.763 145.160  0.00  0.00    +0.060 A 
ATOM     13  C   LIG    1      169.465 145.770 144.397  0.00  0.00    +0.167 A 
ATOM     14  O   LIG    1      168.962 144.549 144.120  0.00  0.00    -0.453 OA
ATOM     15  C   LIG    1      169.969 143.876 143.260  0.00  0.00    +0.466 C 
ATOM     16  O   LIG    1      171.072 144.857 143.118  0.00  0.00    -0.453 OA
ATOM     17  C   LIG    1      170.692 145.950 143.813  0.00  0.00    +0.166 A 
ATOM     18  C   LIG    1      171.391 147.136 143.962  0.00  0.00    +0.050 A 
ATOM     19  C   LIG    1      170.814 148.152 144.726  0.00  0.00    +0.014 A 
ENDBRANCH   1  11
BRANCH   2  20
ATOM     20  C   LIG    1      169.104 148.041 148.430  0.00  0.00    +0.124 A 
ATOM     21  C   LIG    1      170.035 147.017 148.593  0.00  0.00    +0.050 A 
ATOM     22  C   LIG    1      169.750 145.975 149.471  0.00  0.00    +0.024 A 
ATOM     23  C   LIG    1      168.540 145.967 150.173  0.00  0.00    +0.041 A 
ATOM     24 CL   LIG    1      168.188 144.671 151.263  0.00  0.00    -0.084 Cl
ATOM     25  C   LIG    1      167.613 147.000 149.998  0.00  0.00    +0.024 A 
ATOM     26  C   LIG    1      167.893 148.044 149.121  0.00  0.00    +0.050 A 
ENDBRANCH   2  20
BRANCH   1  27
ATOM     27  O   LIG    1      167.528 149.059 146.210  0.00  0.00    -0.347 OA
ATOM     28  H   LIG    1      167.237 148.413 145.548  0.00  0.00    +0.215 HD
ENDBRANCH   1  27
TORSDOF 3
