REMARK VINA RESULT:      -8.4      4.783      8.036
REMARK  Name = ZINC000049420917
REMARK                            x       y       z     vdW  Elec       q    Type
REMARK                         _______ _______ _______ _____ _____    ______ ____
ROOT
ATOM      1  N   LIG    1      170.312 146.255 146.584  0.00  0.00    -0.205 N 
ATOM      2  C   LIG    1      170.541 145.618 145.340  0.00  0.00    +0.160 A 
ATOM      3  N   LIG    1      171.392 146.207 144.488  0.00  0.00    -0.238 NA
ATOM      4  C   LIG    1      171.624 145.641 143.305  0.00  0.00    +0.113 A 
ATOM      5  C   LIG    1      171.014 144.447 142.930  0.00  0.00    +0.022 A 
ATOM      6  C   LIG    1      170.135 143.820 143.806  0.00  0.00    +0.034 A 
ATOM      7  C   LIG    1      169.892 144.430 145.030  0.00  0.00    +0.149 A 
ATOM      8  S   LIG    1      168.874 143.780 146.313  0.00  0.00    +0.082 S 
ATOM      9  O   LIG    1      167.620 144.431 146.292  0.00  0.00    -0.150 OA
ATOM     10  O   LIG    1      168.861 142.365 146.223  0.00  0.00    -0.150 OA
ATOM     11  N   LIG    1      169.677 144.226 147.670  0.00  0.00    -0.150 N 
ATOM     12  C   LIG    1      169.843 145.575 147.719  0.00  0.00    +0.334 C 
ATOM     13  O   LIG    1      169.597 146.187 148.755  0.00  0.00    -0.250 OA
ENDROOT
BRANCH   1  18
ATOM     14  C   LIG    1      171.146 151.890 146.999  0.00  0.00    +0.044 C 
ATOM     15  C   LIG    1      170.922 150.396 146.898  0.00  0.00    -0.050 A 
ATOM     16  C   LIG    1      169.727 149.900 146.375  0.00  0.00    +0.005 A 
ATOM     17  C   LIG    1      169.519 148.529 146.268  0.00  0.00    +0.024 A 
ATOM     18  C   LIG    1      170.521 147.656 146.688  0.00  0.00    +0.044 A 
ATOM     19  C   LIG    1      171.723 148.135 147.209  0.00  0.00    +0.024 A 
ATOM     20  C   LIG    1      171.919 149.509 147.310  0.00  0.00    +0.005 A 
ENDBRANCH   1  18
BRANCH  11  21
ATOM     21  C   LIG    1      169.246 143.512 148.870  0.00  0.00    +0.171 C 
BRANCH  21  22
ATOM     22  C   LIG    1      170.498 142.787 149.323  0.00  0.00    -0.028 A 
ATOM     23  C   LIG    1      170.682 142.496 150.680  0.00  0.00    +0.008 A 
ATOM     24  C   LIG    1      171.827 141.825 151.103  0.00  0.00    +0.038 A 
ATOM     25  C   LIG    1      172.770 141.450 150.156  0.00  0.00    +0.123 A 
ATOM     26  F   LIG    1      173.884 140.798 150.563  0.00  0.00    -0.205 F 
ATOM     27  C   LIG    1      172.607 141.721 148.804  0.00  0.00    +0.038 A 
ATOM     28  C   LIG    1      171.461 142.394 148.389  0.00  0.00    +0.008 A 
ENDBRANCH  21  22
ENDBRANCH  11  21
TORSDOF 3
