REMARK VINA RESULT:      -6.3     67.215     69.087
REMARK  Name = 
REMARK                            x       y       z     vdW  Elec       q    Type
REMARK                         _______ _______ _______ _____ _____    ______ ____
ROOT
ATOM      1  O   LIG    1      190.065  84.538 157.037  0.00  0.00    -0.346 OA
ENDROOT
BRANCH   1   7
ATOM      2  C   LIG    1      185.044  83.771 159.692  0.00  0.00    +0.398 A 
ATOM      3  N   LIG    1      185.687  82.617 159.353  0.00  0.00    -0.128 NA
ATOM      4  C   LIG    1      186.754  82.881 158.609  0.00  0.00    +0.306 A 
ATOM      5  O   LIG    1      187.724  82.055 158.022  0.00  0.00    -0.445 OA
ATOM      6  C   LIG    1      188.711  82.659 157.208  0.00  0.00    +0.240 C 
ATOM      7  C   LIG    1      189.199  83.958 158.166  0.00  0.00    +0.182 C 
ATOM      8  C   LIG    1      187.865  84.871 157.690  0.00  0.00    +0.144 C 
ATOM      9  N   LIG    1      186.813  84.212 158.457  0.00  0.00    -0.272 N 
ATOM     10  C   LIG    1      185.779  84.766 159.111  0.00  0.00    +0.178 A 
BRANCH   2  12
ATOM     11  O   LIG    1      183.694  84.520 160.994  0.00  0.00    +0.043 OA
ATOM     12  N   LIG    1      183.855  83.885 160.487  0.00  0.00    +0.103 N 
ATOM     13  O   LIG    1      182.952  82.824 160.353  0.00  0.00    -0.575 OA
ENDBRANCH   2  12
ENDBRANCH   1   7
BRANCH   1  14
ATOM     14  C   LIG    1      190.518  85.734 157.597  0.00  0.00    +0.169 C 
BRANCH  14  15
ATOM     15  C   LIG    1      191.401  86.459 156.627  0.00  0.00    +0.007 A 
ATOM     16  C   LIG    1      192.293  85.771 155.825  0.00  0.00    +0.001 A 
ATOM     17  C   LIG    1      193.121  86.390 154.924  0.00  0.00    +0.037 A 
ATOM     18  C   LIG    1      193.064  87.778 154.805  0.00  0.00    +0.147 A 
ATOM     19  C   LIG    1      192.191  88.491 155.585  0.00  0.00    +0.037 A 
ATOM     20  C   LIG    1      191.371  87.832 156.485  0.00  0.00    +0.001 A 
BRANCH  18  21
ATOM     21  O   LIG    1      193.906  88.405 153.888  0.00  0.00    -0.404 OA
BRANCH  21  22
ATOM     22  C   LIG    1      195.067  89.074 154.386  0.00  0.00    +0.575 C 
ATOM     23  F   LIG    1      195.503  88.429 155.526  0.00  0.00    -0.133 F 
ATOM     24  F   LIG    1      194.751  90.384 154.732  0.00  0.00    -0.133 F 
ATOM     25  F   LIG    1      196.042  89.034 153.404  0.00  0.00    -0.133 F 
ENDBRANCH  21  22
ENDBRANCH  18  21
ENDBRANCH  14  15
ENDBRANCH   1  14
TORSDOF 6
