MODEL 1
REMARK VINA RESULT:      -8.1      0.000      0.000
REMARK  Name = ZINC000049408611
REMARK                            x       y       z     vdW  Elec       q    Type
REMARK                         _______ _______ _______ _____ _____    ______ ____
ROOT
ATOM      1  N   LIG    1      170.463 147.243 146.504  0.00  0.00    -0.199 N 
ENDROOT
BRANCH   1   2
ATOM      2  C   LIG    1      170.587 148.551 147.004  0.00  0.00    +0.053 A 
ATOM      3  C   LIG    1      169.679 149.093 147.918  0.00  0.00    +0.044 A 
ATOM      4  C   LIG    1      169.876 150.390 148.383  0.00  0.00    +0.043 A 
ATOM      5 CL   LIG    1      168.763 151.074 149.519  0.00  0.00    -0.083 Cl
ATOM      6  C   LIG    1      170.969 151.143 147.946  0.00  0.00    +0.020 A 
ATOM      7  C   LIG    1      171.866 150.594 147.033  0.00  0.00    +0.003 A 
ATOM      8  C   LIG    1      171.678 149.301 146.557  0.00  0.00    +0.025 A 
ENDBRANCH   1   2
BRANCH   1  10
ATOM      9  O   LIG    1      170.938 147.046 144.051  0.00  0.00    -0.150 OA
ATOM     10  S   LIG    1      169.853 147.197 144.954  0.00  0.00    +0.076 S 
ATOM     11  O   LIG    1      169.018 148.328 144.758  0.00  0.00    -0.150 OA
BRANCH  10  12
ATOM     12  C   LIG    1      168.845 145.696 144.895  0.00  0.00    +0.125 A 
ATOM     13  C   LIG    1      167.593 145.672 145.454  0.00  0.00    +0.123 A 
ATOM     14  N   LIG    1      166.845 144.493 145.383  0.00  0.00    -0.287 N 
ATOM     15  C   LIG    1      165.620 144.231 145.830  0.00  0.00    +0.229 A 
ATOM     16  N   LIG    1      165.305 143.006 145.537  0.00  0.00    -0.137 NA
ATOM     17  N   LIG    1      166.362 142.445 144.879  0.00  0.00    -0.130 NA
ATOM     18  C   LIG    1      167.295 143.366 144.794  0.00  0.00    +0.161 A 
ATOM     19  C   LIG    1      168.603 143.369 144.227  0.00  0.00    +0.050 A 
ATOM     20  C   LIG    1      169.363 144.503 144.277  0.00  0.00    +0.034 A 
ENDBRANCH  10  12
ENDBRANCH   1  10
BRANCH   1  21
ATOM     21  C   LIG    1      171.696 146.445 146.495  0.00  0.00    +0.166 C 
BRANCH  21  22
ATOM     22  C   LIG    1      171.356 145.162 147.232  0.00  0.00    -0.028 A 
ATOM     23  C   LIG    1      170.362 145.145 148.212  0.00  0.00    +0.005 A 
ATOM     24  C   LIG    1      170.052 143.962 148.877  0.00  0.00    +0.000 A 
ATOM     25  C   LIG    1      170.733 142.790 148.568  0.00  0.00    +0.000 A 
ATOM     26  C   LIG    1      171.724 142.800 147.591  0.00  0.00    +0.000 A 
ATOM     27  C   LIG    1      172.032 143.982 146.924  0.00  0.00    +0.005 A 
ENDBRANCH  21  22
ENDBRANCH   1  21
TORSDOF 5
ENDMDL
MODEL 2
REMARK VINA RESULT:      -7.7      2.579      3.999
REMARK  Name = ZINC000049408611
REMARK                            x       y       z     vdW  Elec       q    Type
REMARK                         _______ _______ _______ _____ _____    ______ ____
ROOT
ATOM      1  N   LIG    1      169.932 147.438 146.531  0.00  0.00    -0.199 N 
ENDROOT
BRANCH   1   2
ATOM      2  C   LIG    1      170.244 148.762 146.889  0.00  0.00    +0.053 A 
ATOM      3  C   LIG    1      169.281 149.774 146.925  0.00  0.00    +0.044 A 
ATOM      4  C   LIG    1      169.660 151.059 147.305  0.00  0.00    +0.043 A 
ATOM      5 CL   LIG    1      168.479 152.323 147.359  0.00  0.00    -0.083 Cl
ATOM      6  C   LIG    1      170.986 151.334 147.651  0.00  0.00    +0.020 A 
ATOM      7  C   LIG    1      171.938 150.319 147.608  0.00  0.00    +0.003 A 
ATOM      8  C   LIG    1      171.572 149.033 147.225  0.00  0.00    +0.025 A 
ENDBRANCH   1   2
BRANCH   1  10
ATOM      9  O   LIG    1      167.813 146.393 147.368  0.00  0.00    -0.150 OA
ATOM     10  S   LIG    1      169.164 146.601 147.751  0.00  0.00    +0.076 S 
ATOM     11  O   LIG    1      169.377 147.285 148.977  0.00  0.00    -0.150 OA
BRANCH  10  12
ATOM     12  C   LIG    1      169.997 144.997 147.812  0.00  0.00    +0.125 A 
ATOM     13  C   LIG    1      169.391 143.916 148.400  0.00  0.00    +0.123 A 
ATOM     14  N   LIG    1      170.068 142.694 148.421  0.00  0.00    -0.287 N 
ATOM     15  C   LIG    1      169.688 141.517 148.912  0.00  0.00    +0.229 A 
ATOM     16  N   LIG    1      170.623 140.640 148.706  0.00  0.00    -0.137 NA
ATOM     17  N   LIG    1      171.652 141.265 148.061  0.00  0.00    -0.130 NA
ATOM     18  C   LIG    1      171.298 142.519 147.896  0.00  0.00    +0.161 A 
ATOM     19  C   LIG    1      171.949 143.638 147.299  0.00  0.00    +0.050 A 
ATOM     20  C   LIG    1      171.318 144.849 147.260  0.00  0.00    +0.034 A 
ENDBRANCH  10  12
ENDBRANCH   1  10
BRANCH   1  21
ATOM     21  C   LIG    1      169.105 147.282 145.328  0.00  0.00    +0.166 C 
BRANCH  21  22
ATOM     22  C   LIG    1      169.825 146.258 144.469  0.00  0.00    -0.028 A 
ATOM     23  C   LIG    1      169.268 144.999 144.242  0.00  0.00    +0.005 A 
ATOM     24  C   LIG    1      169.933 144.070 143.447  0.00  0.00    +0.000 A 
ATOM     25  C   LIG    1      171.159 144.393 142.875  0.00  0.00    +0.000 A 
ATOM     26  C   LIG    1      171.719 145.647 143.096  0.00  0.00    +0.000 A 
ATOM     27  C   LIG    1      171.053 146.577 143.889  0.00  0.00    +0.005 A 
ENDBRANCH  21  22
ENDBRANCH   1  21
TORSDOF 5
ENDMDL
MODEL 3
REMARK VINA RESULT:      -7.7      1.660      2.006
REMARK  Name = ZINC000049408611
REMARK                            x       y       z     vdW  Elec       q    Type
REMARK                         _______ _______ _______ _____ _____    ______ ____
ROOT
ATOM      1  N   LIG    1      169.912 147.172 145.645  0.00  0.00    -0.199 N 
ENDROOT
BRANCH   1   2
ATOM      2  C   LIG    1      169.910 148.570 145.497  0.00  0.00    +0.053 A 
ATOM      3  C   LIG    1      168.962 149.388 146.118  0.00  0.00    +0.044 A 
ATOM      4  C   LIG    1      169.033 150.767 145.940  0.00  0.00    +0.043 A 
ATOM      5 CL   LIG    1      167.868 151.793 146.706  0.00  0.00    -0.083 Cl
ATOM      6  C   LIG    1      170.041 151.329 145.152  0.00  0.00    +0.020 A 
ATOM      7  C   LIG    1      170.979 150.506 144.536  0.00  0.00    +0.003 A 
ATOM      8  C   LIG    1      170.916 149.126 144.703  0.00  0.00    +0.025 A 
ENDBRANCH   1   2
BRANCH   1  10
ATOM      9  O   LIG    1      169.981 145.714 143.607  0.00  0.00    -0.150 OA
ATOM     10  S   LIG    1      169.057 146.392 144.445  0.00  0.00    +0.076 S 
ATOM     11  O   LIG    1      168.198 147.329 143.814  0.00  0.00    -0.150 OA
BRANCH  10  12
ATOM     12  C   LIG    1      168.058 145.159 145.313  0.00  0.00    +0.125 A 
ATOM     13  C   LIG    1      167.130 145.542 146.248  0.00  0.00    +0.123 A 
ATOM     14  N   LIG    1      166.376 144.558 146.892  0.00  0.00    -0.287 N 
ATOM     15  C   LIG    1      165.421 144.680 147.810  0.00  0.00    +0.229 A 
ATOM     16  N   LIG    1      164.973 143.503 148.127  0.00  0.00    -0.137 NA
ATOM     17  N   LIG    1      165.663 142.578 147.395  0.00  0.00    -0.130 NA
ATOM     18  C   LIG    1      166.516 143.239 146.647  0.00  0.00    +0.161 A 
ATOM     19  C   LIG    1      167.491 142.824 145.693  0.00  0.00    +0.050 A 
ATOM     20  C   LIG    1      168.247 143.758 145.043  0.00  0.00    +0.034 A 
ENDBRANCH  10  12
ENDBRANCH   1  10
BRANCH   1  21
ATOM     21  C   LIG    1      171.237 146.539 145.697  0.00  0.00    +0.166 C 
BRANCH  21  22
ATOM     22  C   LIG    1      171.099 145.388 146.676  0.00  0.00    -0.028 A 
ATOM     23  C   LIG    1      171.674 144.146 146.402  0.00  0.00    +0.005 A 
ATOM     24  C   LIG    1      171.549 143.099 147.310  0.00  0.00    +0.000 A 
ATOM     25  C   LIG    1      170.848 143.285 148.497  0.00  0.00    +0.000 A 
ATOM     26  C   LIG    1      170.273 144.521 148.776  0.00  0.00    +0.000 A 
ATOM     27  C   LIG    1      170.400 145.569 147.870  0.00  0.00    +0.005 A 
ENDBRANCH  21  22
ENDBRANCH   1  21
TORSDOF 5
ENDMDL
MODEL 4
REMARK VINA RESULT:      -7.5      2.925      4.100
REMARK  Name = ZINC000049408611
REMARK                            x       y       z     vdW  Elec       q    Type
REMARK                         _______ _______ _______ _____ _____    ______ ____
ROOT
ATOM      1  N   LIG    1      168.863 149.806 147.004  0.00  0.00    -0.199 N 
ENDROOT
BRANCH   1   2
ATOM      2  C   LIG    1      168.127 151.000 147.112  0.00  0.00    +0.053 A 
ATOM      3  C   LIG    1      166.904 151.187 146.462  0.00  0.00    +0.044 A 
ATOM      4  C   LIG    1      166.223 152.389 146.629  0.00  0.00    +0.043 A 
ATOM      5 CL   LIG    1      164.705 152.635 145.834  0.00  0.00    -0.083 Cl
ATOM      6  C   LIG    1      166.752 153.398 147.440  0.00  0.00    +0.020 A 
ATOM      7  C   LIG    1      167.972 153.202 148.080  0.00  0.00    +0.003 A 
ATOM      8  C   LIG    1      168.665 152.006 147.917  0.00  0.00    +0.025 A 
ENDBRANCH   1   2
BRANCH   1  10
ATOM      9  O   LIG    1      171.231 150.008 146.208  0.00  0.00    -0.150 OA
ATOM     10  S   LIG    1      169.916 149.808 145.712  0.00  0.00    +0.076 S 
ATOM     11  O   LIG    1      169.453 150.742 144.749  0.00  0.00    -0.150 OA
BRANCH  10  12
ATOM     12  C   LIG    1      169.810 148.139 145.023  0.00  0.00    +0.125 A 
ATOM     13  C   LIG    1      170.916 147.536 144.480  0.00  0.00    +0.123 A 
ATOM     14  N   LIG    1      170.792 146.244 143.962  0.00  0.00    -0.287 N 
ATOM     15  C   LIG    1      171.708 145.455 143.407  0.00  0.00    +0.229 A 
ATOM     16  N   LIG    1      171.163 144.325 143.075  0.00  0.00    -0.137 NA
ATOM     17  N   LIG    1      169.843 144.375 143.422  0.00  0.00    -0.130 NA
ATOM     18  C   LIG    1      169.632 145.554 143.962  0.00  0.00    +0.161 A 
ATOM     19  C   LIG    1      168.470 146.177 144.503  0.00  0.00    +0.050 A 
ATOM     20  C   LIG    1      168.553 147.439 145.019  0.00  0.00    +0.034 A 
ENDBRANCH  10  12
ENDBRANCH   1  10
BRANCH   1  21
ATOM     21  C   LIG    1      169.650 149.434 148.188  0.00  0.00    +0.166 C 
BRANCH  21  22
ATOM     22  C   LIG    1      169.218 148.021 148.535  0.00  0.00    -0.028 A 
ATOM     23  C   LIG    1      167.892 147.741 148.867  0.00  0.00    +0.005 A 
ATOM     24  C   LIG    1      167.504 146.441 149.176  0.00  0.00    +0.000 A 
ATOM     25  C   LIG    1      168.439 145.412 149.155  0.00  0.00    +0.000 A 
ATOM     26  C   LIG    1      169.763 145.683 148.823  0.00  0.00    +0.000 A 
ATOM     27  C   LIG    1      170.150 146.983 148.512  0.00  0.00    +0.005 A 
ENDBRANCH  21  22
ENDBRANCH   1  21
TORSDOF 5
ENDMDL
MODEL 5
REMARK VINA RESULT:      -7.4      4.627      7.089
REMARK  Name = ZINC000049408611
REMARK                            x       y       z     vdW  Elec       q    Type
REMARK                         _______ _______ _______ _____ _____    ______ ____
ROOT
ATOM      1  N   LIG    1      168.371 150.773 147.601  0.00  0.00    -0.199 N 
ENDROOT
BRANCH   1   2
ATOM      2  C   LIG    1      169.219 150.312 146.578  0.00  0.00    +0.053 A 
ATOM      3  C   LIG    1      169.225 148.980 146.154  0.00  0.00    +0.044 A 
ATOM      4  C   LIG    1      170.080 148.599 145.123  0.00  0.00    +0.043 A 
ATOM      5 CL   LIG    1      170.097 146.954 144.584  0.00  0.00    -0.083 Cl
ATOM      6  C   LIG    1      170.920 149.537 144.516  0.00  0.00    +0.020 A 
ATOM      7  C   LIG    1      170.908 150.860 144.948  0.00  0.00    +0.003 A 
ATOM      8  C   LIG    1      170.062 151.251 145.980  0.00  0.00    +0.025 A 
ENDBRANCH   1   2
BRANCH   1  10
ATOM      9  O   LIG    1      168.956 151.785 149.818  0.00  0.00    -0.150 OA
ATOM     10  S   LIG    1      169.011 150.548 149.123  0.00  0.00    +0.076 S 
ATOM     11  O   LIG    1      170.292 149.949 148.996  0.00  0.00    -0.150 OA
BRANCH  10  12
ATOM     12  C   LIG    1      167.887 149.385 149.933  0.00  0.00    +0.125 A 
ATOM     13  C   LIG    1      168.096 148.032 149.842  0.00  0.00    +0.123 A 
ATOM     14  N   LIG    1      167.207 147.168 150.486  0.00  0.00    -0.287 N 
ATOM     15  C   LIG    1      167.207 145.839 150.556  0.00  0.00    +0.229 A 
ATOM     16  N   LIG    1      166.200 145.443 151.273  0.00  0.00    -0.137 NA
ATOM     17  N   LIG    1      165.513 146.550 151.683  0.00  0.00    -0.130 NA
ATOM     18  C   LIG    1      166.141 147.595 151.194  0.00  0.00    +0.161 A 
ATOM     19  C   LIG    1      165.898 148.998 151.280  0.00  0.00    +0.050 A 
ATOM     20  C   LIG    1      166.747 149.873 150.663  0.00  0.00    +0.034 A 
ENDBRANCH  10  12
ENDBRANCH   1  10
BRANCH   1  21
ATOM     21  C   LIG    1      167.979 152.186 147.514  0.00  0.00    +0.166 C 
BRANCH  21  22
ATOM     22  C   LIG    1      166.473 152.178 147.319  0.00  0.00    -0.028 A 
ATOM     23  C   LIG    1      165.614 152.414 148.393  0.00  0.00    +0.005 A 
ATOM     24  C   LIG    1      164.235 152.412 148.203  0.00  0.00    +0.000 A 
ATOM     25  C   LIG    1      163.707 152.174 146.939  0.00  0.00    +0.000 A 
ATOM     26  C   LIG    1      164.557 151.940 145.864  0.00  0.00    +0.000 A 
ATOM     27  C   LIG    1      165.936 151.943 146.053  0.00  0.00    +0.005 A 
ENDBRANCH  21  22
ENDBRANCH   1  21
TORSDOF 5
ENDMDL
MODEL 6
REMARK VINA RESULT:      -7.3      3.222      6.966
REMARK  Name = ZINC000049408611
REMARK                            x       y       z     vdW  Elec       q    Type
REMARK                         _______ _______ _______ _____ _____    ______ ____
ROOT
ATOM      1  N   LIG    1      169.209 146.614 146.202  0.00  0.00    -0.199 N 
ENDROOT
BRANCH   1   2
ATOM      2  C   LIG    1      168.509 145.423 145.937  0.00  0.00    +0.053 A 
ATOM      3  C   LIG    1      167.146 145.278 146.212  0.00  0.00    +0.044 A 
ATOM      4  C   LIG    1      166.517 144.075 145.907  0.00  0.00    +0.043 A 
ATOM      5 CL   LIG    1      164.828 143.881 146.237  0.00  0.00    -0.083 Cl
ATOM      6  C   LIG    1      167.235 143.024 145.330  0.00  0.00    +0.020 A 
ATOM      7  C   LIG    1      168.593 143.178 145.064  0.00  0.00    +0.003 A 
ATOM      8  C   LIG    1      169.235 144.374 145.368  0.00  0.00    +0.025 A 
ENDBRANCH   1   2
BRANCH   1  10
ATOM      9  O   LIG    1      171.454 146.198 147.235  0.00  0.00    -0.150 OA
ATOM     10  S   LIG    1      170.122 146.534 147.594  0.00  0.00    +0.076 S 
ATOM     11  O   LIG    1      169.476 145.668 148.514  0.00  0.00    -0.150 OA
BRANCH  10  12
ATOM     12  C   LIG    1      170.113 148.218 148.253  0.00  0.00    +0.125 A 
ATOM     13  C   LIG    1      168.939 148.813 148.637  0.00  0.00    +0.123 A 
ATOM     14  N   LIG    1      168.977 150.114 149.145  0.00  0.00    -0.287 N 
ATOM     15  C   LIG    1      167.988 150.886 149.591  0.00  0.00    +0.229 A 
ATOM     16  N   LIG    1      168.472 152.023 149.987  0.00  0.00    -0.137 NA
ATOM     17  N   LIG    1      169.824 151.998 149.791  0.00  0.00    -0.130 NA
ATOM     18  C   LIG    1      170.115 150.825 149.275  0.00  0.00    +0.161 A 
ATOM     19  C   LIG    1      171.342 150.228 148.862  0.00  0.00    +0.050 A 
ATOM     20  C   LIG    1      171.344 148.958 148.359  0.00  0.00    +0.034 A 
ENDBRANCH  10  12
ENDBRANCH   1  10
BRANCH   1  21
ATOM     21  C   LIG    1      170.107 147.075 145.135  0.00  0.00    +0.166 C 
BRANCH  21  22
ATOM     22  C   LIG    1      169.836 148.561 144.990  0.00  0.00    -0.028 A 
ATOM     23  C   LIG    1      168.529 149.052 144.988  0.00  0.00    +0.005 A 
ATOM     24  C   LIG    1      168.291 150.417 144.863  0.00  0.00    +0.000 A 
ATOM     25  C   LIG    1      169.358 151.301 144.737  0.00  0.00    +0.000 A 
ATOM     26  C   LIG    1      170.662 150.820 144.739  0.00  0.00    +0.000 A 
ATOM     27  C   LIG    1      170.901 149.455 144.867  0.00  0.00    +0.005 A 
ENDBRANCH  21  22
ENDBRANCH   1  21
TORSDOF 5
ENDMDL
MODEL 7
REMARK VINA RESULT:      -7.2      2.850      4.308
REMARK  Name = ZINC000049408611
REMARK                            x       y       z     vdW  Elec       q    Type
REMARK                         _______ _______ _______ _____ _____    ______ ____
ROOT
ATOM      1  N   LIG    1      169.255 147.388 146.206  0.00  0.00    -0.199 N 
ENDROOT
BRANCH   1   2
ATOM      2  C   LIG    1      169.122 148.766 145.961  0.00  0.00    +0.053 A 
ATOM      3  C   LIG    1      170.030 149.706 146.457  0.00  0.00    +0.044 A 
ATOM      4  C   LIG    1      169.844 151.053 146.159  0.00  0.00    +0.043 A 
ATOM      5 CL   LIG    1      170.962 152.229 146.762  0.00  0.00    -0.083 Cl
ATOM      6  C   LIG    1      168.765 151.463 145.371  0.00  0.00    +0.020 A 
ATOM      7  C   LIG    1      167.865 150.519 144.884  0.00  0.00    +0.003 A 
ATOM      8  C   LIG    1      168.038 149.170 145.179  0.00  0.00    +0.025 A 
ENDBRANCH   1   2
BRANCH   1  10
ATOM      9  O   LIG    1      167.384 147.114 147.851  0.00  0.00    -0.150 OA
ATOM     10  S   LIG    1      168.791 146.955 147.747  0.00  0.00    +0.076 S 
ATOM     11  O   LIG    1      169.582 147.676 148.680  0.00  0.00    -0.150 OA
BRANCH  10  12
ATOM     12  C   LIG    1      169.180 145.193 147.873  0.00  0.00    +0.125 A 
ATOM     13  C   LIG    1      170.478 144.757 147.799  0.00  0.00    +0.123 A 
ATOM     14  N   LIG    1      170.736 143.387 147.905  0.00  0.00    -0.287 N 
ATOM     15  C   LIG    1      171.893 142.732 147.880  0.00  0.00    +0.229 A 
ATOM     16  N   LIG    1      171.674 141.461 148.027  0.00  0.00    -0.137 NA
ATOM     17  N   LIG    1      170.327 141.277 148.149  0.00  0.00    -0.130 NA
ATOM     18  C   LIG    1      169.768 142.463 148.072  0.00  0.00    +0.161 A 
ATOM     19  C   LIG    1      168.412 142.899 148.130  0.00  0.00    +0.050 A 
ATOM     20  C   LIG    1      168.122 144.231 148.029  0.00  0.00    +0.034 A 
ENDBRANCH  10  12
ENDBRANCH   1  10
BRANCH   1  21
ATOM     21  C   LIG    1      168.528 146.504 145.284  0.00  0.00    +0.166 C 
BRANCH  21  22
ATOM     22  C   LIG    1      169.591 145.866 144.409  0.00  0.00    -0.028 A 
ATOM     23  C   LIG    1      170.637 146.629 143.886  0.00  0.00    +0.005 A 
ATOM     24  C   LIG    1      171.612 146.033 143.091  0.00  0.00    +0.000 A 
ATOM     25  C   LIG    1      171.547 144.671 142.813  0.00  0.00    +0.000 A 
ATOM     26  C   LIG    1      170.509 143.905 143.332  0.00  0.00    +0.000 A 
ATOM     27  C   LIG    1      169.535 144.501 144.129  0.00  0.00    +0.005 A 
ENDBRANCH  21  22
ENDBRANCH   1  21
TORSDOF 5
ENDMDL
MODEL 8
REMARK VINA RESULT:      -7.0      3.976      6.176
REMARK  Name = ZINC000049408611
REMARK                            x       y       z     vdW  Elec       q    Type
REMARK                         _______ _______ _______ _____ _____    ______ ____
ROOT
ATOM      1  N   LIG    1      165.884 144.578 147.564  0.00  0.00    -0.199 N 
ENDROOT
BRANCH   1   2
ATOM      2  C   LIG    1      167.135 144.740 148.186  0.00  0.00    +0.053 A 
ATOM      3  C   LIG    1      167.896 143.655 148.633  0.00  0.00    +0.044 A 
ATOM      4  C   LIG    1      169.133 143.892 149.224  0.00  0.00    +0.043 A 
ATOM      5 CL   LIG    1      170.089 142.559 149.779  0.00  0.00    -0.083 Cl
ATOM      6  C   LIG    1      169.614 145.196 149.368  0.00  0.00    +0.020 A 
ATOM      7  C   LIG    1      168.847 146.269 148.922  0.00  0.00    +0.003 A 
ATOM      8  C   LIG    1      167.607 146.046 148.334  0.00  0.00    +0.025 A 
ENDBRANCH   1   2
BRANCH   1  10
ATOM      9  O   LIG    1      164.823 144.190 145.327  0.00  0.00    -0.150 OA
ATOM     10  S   LIG    1      165.996 143.871 146.059  0.00  0.00    +0.076 S 
ATOM     11  O   LIG    1      166.286 142.491 146.223  0.00  0.00    -0.150 OA
BRANCH  10  12
ATOM     12  C   LIG    1      167.405 144.684 145.267  0.00  0.00    +0.125 A 
ATOM     13  C   LIG    1      168.575 144.002 145.049  0.00  0.00    +0.123 A 
ATOM     14  N   LIG    1      169.637 144.666 144.431  0.00  0.00    -0.287 N 
ATOM     15  C   LIG    1      170.847 144.221 144.103  0.00  0.00    +0.229 A 
ATOM     16  N   LIG    1      171.518 145.173 143.529  0.00  0.00    -0.137 NA
ATOM     17  N   LIG    1      170.721 146.281 143.482  0.00  0.00    -0.130 NA
ATOM     18  C   LIG    1      169.576 145.955 144.038  0.00  0.00    +0.161 A 
ATOM     19  C   LIG    1      168.374 146.683 144.276  0.00  0.00    +0.050 A 
ATOM     20  C   LIG    1      167.314 146.067 144.879  0.00  0.00    +0.034 A 
ENDBRANCH  10  12
ENDBRANCH   1  10
BRANCH   1  21
ATOM     21  C   LIG    1      164.893 143.801 148.321  0.00  0.00    +0.166 C 
BRANCH  21  22
ATOM     22  C   LIG    1      164.371 144.743 149.391  0.00  0.00    -0.028 A 
ATOM     23  C   LIG    1      164.610 144.489 150.743  0.00  0.00    +0.005 A 
ATOM     24  C   LIG    1      164.133 145.362 151.716  0.00  0.00    +0.000 A 
ATOM     25  C   LIG    1      163.415 146.494 151.345  0.00  0.00    +0.000 A 
ATOM     26  C   LIG    1      163.175 146.754 150.000  0.00  0.00    +0.000 A 
ATOM     27  C   LIG    1      163.653 145.882 149.026  0.00  0.00    +0.005 A 
ENDBRANCH  21  22
ENDBRANCH   1  21
TORSDOF 5
ENDMDL
MODEL 9
REMARK VINA RESULT:      -7.0     40.676     43.428
REMARK  Name = ZINC000049408611
REMARK                            x       y       z     vdW  Elec       q    Type
REMARK                         _______ _______ _______ _____ _____    ______ ____
ROOT
ATOM      1  N   LIG    1      200.160 114.608 143.748  0.00  0.00    -0.199 N 
ENDROOT
BRANCH   1   2
ATOM      2  C   LIG    1      200.882 113.745 144.592  0.00  0.00    +0.053 A 
ATOM      3  C   LIG    1      202.190 113.341 144.309  0.00  0.00    +0.044 A 
ATOM      4  C   LIG    1      202.848 112.499 145.200  0.00  0.00    +0.043 A 
ATOM      5 CL   LIG    1      204.470 111.993 144.865  0.00  0.00    -0.083 Cl
ATOM      6  C   LIG    1      202.213 112.063 146.366  0.00  0.00    +0.020 A 
ATOM      7  C   LIG    1      200.909 112.469 146.637  0.00  0.00    +0.003 A 
ATOM      8  C   LIG    1      200.239 113.307 145.752  0.00  0.00    +0.025 A 
ENDBRANCH   1   2
BRANCH   1  10
ATOM      9  O   LIG    1      201.051 116.638 142.579  0.00  0.00    -0.150 OA
ATOM     10  S   LIG    1      200.656 116.195 143.868  0.00  0.00    +0.076 S 
ATOM     11  O   LIG    1      201.628 116.293 144.898  0.00  0.00    -0.150 OA
BRANCH  10  12
ATOM     12  C   LIG    1      199.175 117.109 144.359  0.00  0.00    +0.125 A 
ATOM     13  C   LIG    1      199.034 117.576 145.641  0.00  0.00    +0.123 A 
ATOM     14  N   LIG    1      197.875 118.281 145.978  0.00  0.00    -0.287 N 
ATOM     15  C   LIG    1      197.521 118.838 147.134  0.00  0.00    +0.229 A 
ATOM     16  N   LIG    1      196.362 119.409 147.001  0.00  0.00    -0.137 NA
ATOM     17  N   LIG    1      195.942 119.217 145.716  0.00  0.00    -0.130 NA
ATOM     18  C   LIG    1      196.877 118.526 145.105  0.00  0.00    +0.161 A 
ATOM     19  C   LIG    1      196.999 118.029 143.774  0.00  0.00    +0.050 A 
ATOM     20  C   LIG    1      198.118 117.335 143.408  0.00  0.00    +0.034 A 
ENDBRANCH  10  12
ENDBRANCH   1  10
BRANCH   1  21
ATOM     21  C   LIG    1      200.183 114.267 142.319  0.00  0.00    +0.166 C 
BRANCH  21  22
ATOM     22  C   LIG    1      198.846 113.605 142.039  0.00  0.00    -0.028 A 
ATOM     23  C   LIG    1      197.801 114.326 141.458  0.00  0.00    +0.005 A 
ATOM     24  C   LIG    1      196.582 113.708 141.197  0.00  0.00    +0.000 A 
ATOM     25  C   LIG    1      196.398 112.367 141.517  0.00  0.00    +0.000 A 
ATOM     26  C   LIG    1      197.435 111.642 142.095  0.00  0.00    +0.000 A 
ATOM     27  C   LIG    1      198.656 112.259 142.353  0.00  0.00    +0.005 A 
ENDBRANCH  21  22
ENDBRANCH   1  21
TORSDOF 5
ENDMDL
