REMARK VINA RESULT:      -8.0      0.000      0.000
REMARK  Name = 
REMARK                            x       y       z     vdW  Elec       q    Type
REMARK                         _______ _______ _______ _____ _____    ______ ____
ROOT
ATOM      1  O   LIG    1      169.154 150.554 147.438  0.00  0.00    -0.346 OA
ENDROOT
BRANCH   1   7
ATOM      2  C   LIG    1      166.783 154.926 150.289  0.00  0.00    +0.398 A 
ATOM      3  N   LIG    1      168.058 154.625 150.671  0.00  0.00    -0.128 NA
ATOM      4  C   LIG    1      168.470 153.512 150.078  0.00  0.00    +0.306 A 
ATOM      5  O   LIG    1      169.678 152.801 150.140  0.00  0.00    -0.445 OA
ATOM      6  C   LIG    1      169.772 151.582 149.427  0.00  0.00    +0.240 C 
ATOM      7  C   LIG    1      169.139 152.012 147.925  0.00  0.00    +0.182 C 
ATOM      8  C   LIG    1      167.561 151.867 148.495  0.00  0.00    +0.144 C 
ATOM      9  N   LIG    1      167.466 153.077 149.304  0.00  0.00    -0.272 N 
ATOM     10  C   LIG    1      166.433 153.929 149.423  0.00  0.00    +0.178 A 
BRANCH   2  12
ATOM     11  O   LIG    1      165.228 155.999 151.002  0.00  0.00    +0.043 OA
ATOM     12  N   LIG    1      166.004 156.052 150.719  0.00  0.00    +0.103 N 
ATOM     13  O   LIG    1      166.656 157.287 150.629  0.00  0.00    -0.575 OA
ENDBRANCH   2  12
ENDBRANCH   1   7
BRANCH   1  14
ATOM     14  C   LIG    1      169.516 150.694 146.097  0.00  0.00    +0.169 C 
BRANCH  14  15
ATOM     15  C   LIG    1      169.643 149.346 145.452  0.00  0.00    +0.007 A 
ATOM     16  C   LIG    1      168.543 148.522 145.302  0.00  0.00    +0.001 A 
ATOM     17  C   LIG    1      168.609 147.284 144.719  0.00  0.00    +0.037 A 
ATOM     18  C   LIG    1      169.842 146.828 144.253  0.00  0.00    +0.147 A 
ATOM     19  C   LIG    1      170.952 147.619 144.385  0.00  0.00    +0.037 A 
ATOM     20  C   LIG    1      170.847 148.865 144.980  0.00  0.00    +0.001 A 
BRANCH  18  21
ATOM     21  O   LIG    1      169.907 145.568 143.659  0.00  0.00    -0.404 OA
BRANCH  21  22
ATOM     22  C   LIG    1      170.360 144.471 144.456  0.00  0.00    +0.575 C 
ATOM     23  F   LIG    1      169.562 143.373 144.206  0.00  0.00    -0.133 F 
ATOM     24  F   LIG    1      170.245 144.783 145.807  0.00  0.00    -0.133 F 
ATOM     25  F   LIG    1      171.674 144.202 144.112  0.00  0.00    -0.133 F 
ENDBRANCH  21  22
ENDBRANCH  18  21
ENDBRANCH  14  15
ENDBRANCH   1  14
TORSDOF 6
