REMARK VINA RESULT:      -6.0     41.910     43.405
REMARK  Name = ZINC000000622877
REMARK                            x       y       z     vdW  Elec       q    Type
REMARK                         _______ _______ _______ _____ _____    ______ ____
ROOT
ATOM      1  O   LIG    1      179.063 149.169 151.935  0.00  0.00    -0.274 OA
ATOM      2  C   LIG    1      178.743 150.338 151.788  0.00  0.00    +0.235 C 
ATOM      3  N   LIG    1      178.798 151.197 152.842  0.00  0.00    -0.219 N 
ATOM      4  H   LIG    1      178.710 152.217 152.699  0.00  0.00    +0.176 HD
ENDROOT
BRANCH   3   5
ATOM      5  N   LIG    1      179.249 150.759 154.176  0.00  0.00    -0.217 N 
ATOM      6  C   LIG    1      180.587 150.856 154.594  0.00  0.00    +0.079 A 
ATOM      7  C   LIG    1      180.692 150.558 155.914  0.00  0.00    +0.078 A 
ATOM      8  S   LIG    1      179.180 150.119 156.640  0.00  0.00    -0.033 S 
ATOM      9  C   LIG    1      178.349 150.348 155.133  0.00  0.00    +0.308 A 
ATOM     10  O   LIG    1      177.133 150.162 154.910  0.00  0.00    -0.258 OA
BRANCH   6  11
ATOM     11  C   LIG    1      181.657 151.227 153.678  0.00  0.00    +0.001 A 
ATOM     12  C   LIG    1      182.071 152.560 153.556  0.00  0.00    +0.010 A 
ATOM     13  C   LIG    1      183.087 152.911 152.673  0.00  0.00    +0.001 A 
ATOM     14  C   LIG    1      183.706 151.935 151.900  0.00  0.00    +0.000 A 
ATOM     15  C   LIG    1      183.306 150.607 152.012  0.00  0.00    +0.001 A 
ATOM     16  C   LIG    1      182.291 150.257 152.894  0.00  0.00    +0.010 A 
ENDBRANCH   6  11
ENDBRANCH   3   5
BRANCH   2  17
ATOM     17  C   LIG    1      178.284 150.883 150.450  0.00  0.00    +0.132 C 
BRANCH  17  18
ATOM     18  C   LIG    1      179.515 151.336 149.676  0.00  0.00    -0.039 A 
ATOM     19  C   LIG    1      180.147 152.538 149.993  0.00  0.00    +0.005 A 
ATOM     20  C   LIG    1      181.283 152.939 149.296  0.00  0.00    +0.015 A 
ATOM     21  C   LIG    1      181.796 152.143 148.276  0.00  0.00    +0.018 A 
ATOM     22 BR   LIG    1      183.342 152.689 147.331  0.00  0.00    -0.050 Br
ATOM     23  C   LIG    1      181.167 150.944 147.954  0.00  0.00    +0.015 A 
ATOM     24  C   LIG    1      180.030 150.543 148.649  0.00  0.00    +0.005 A 
ENDBRANCH  17  18
ENDBRANCH   2  17
TORSDOF 4
