REMARK VINA RESULT:      -6.9     47.986     51.155
REMARK  Name = ZINC000186872603
REMARK                            x       y       z     vdW  Elec       q    Type
REMARK                         _______ _______ _______ _____ _____    ______ ____
ROOT
ATOM      1  N   LIG    1      203.171 113.064 145.321  0.00  0.00    -0.297 N 
ATOM      2  C   LIG    1      204.277 112.840 144.352  0.00  0.00    +0.123 C 
ATOM      3  C   LIG    1      205.136 111.655 144.862  0.00  0.00    +0.103 C 
ATOM      4  N   LIG    1      205.677 111.944 146.222  0.00  0.00    -0.299 NA
ATOM      5  C   LIG    1      204.539 112.152 147.171  0.00  0.00    +0.103 C 
ATOM      6  C   LIG    1      203.618 113.317 146.716  0.00  0.00    +0.123 C 
ENDROOT
BRANCH   1  10
ATOM      7  C   LIG    1      198.858 112.635 143.329  0.00  0.00    +0.066 C 
ATOM      8  C   LIG    1      199.942 113.500 143.924  0.00  0.00    +0.044 A 
ATOM      9  N   LIG    1      201.048 112.921 144.342  0.00  0.00    -0.220 NA
ATOM     10  C   LIG    1      202.010 113.683 144.877  0.00  0.00    +0.218 A 
ATOM     11  N   LIG    1      201.914 115.012 145.006  0.00  0.00    -0.219 NA
ATOM     12  C   LIG    1      200.814 115.621 144.597  0.00  0.00    +0.049 A 
ATOM     13  C   LIG    1      199.788 114.872 144.039  0.00  0.00    +0.046 A 
BRANCH  12  14
ATOM     14  C   LIG    1      200.686 117.135 144.741  0.00  0.00    +0.032 C 
ATOM     15  C   LIG    1      201.689 117.819 143.799  0.00  0.00    +0.014 C 
ATOM     16  C   LIG    1      200.954 117.529 146.202  0.00  0.00    +0.014 C 
ENDBRANCH  12  14
ENDBRANCH   1  10
BRANCH   4  17
ATOM     17  C   LIG    1      206.681 113.030 146.214  0.00  0.00    +0.085 C 
BRANCH  17  18
ATOM     18  C   LIG    1      207.103 113.187 147.686  0.00  0.00    +0.025 C 
BRANCH  18  19
ATOM     19  C   LIG    1      208.301 112.257 147.955  0.00  0.00    +0.097 C 
BRANCH  19  20
ATOM     20  C   LIG    1      208.043 111.494 149.237  0.00  0.00    +0.197 A 
ATOM     21  O   LIG    1      206.875 111.700 149.902  0.00  0.00    -0.440 OA
ATOM     22  C   LIG    1      206.941 110.893 150.965  0.00  0.00    +0.155 A 
ATOM     23  C   LIG    1      206.014 110.696 151.987  0.00  0.00    +0.048 A 
ATOM     24  C   LIG    1      206.339 109.783 152.984  0.00  0.00    +0.004 A 
ATOM     25  C   LIG    1      207.567 109.091 152.945  0.00  0.00    +0.002 A 
ATOM     26  C   LIG    1      208.473 109.310 151.908  0.00  0.00    +0.031 A 
ATOM     27  C   LIG    1      208.141 110.228 150.908  0.00  0.00    +0.110 A 
ATOM     28  N   LIG    1      208.822 110.637 149.785  0.00  0.00    -0.213 NA
ENDBRANCH  19  20
ENDBRANCH  18  19
ENDBRANCH  17  18
ENDBRANCH   4  17
TORSDOF 6
