REMARK VINA RESULT:      -7.7      0.000      0.000
REMARK  Name = ZINC000009075134
REMARK                            x       y       z     vdW  Elec       q    Type
REMARK                         _______ _______ _______ _____ _____    ______ ____
ROOT
ATOM      1  C   LIG    1      170.404 151.564 147.341  0.00  0.00    +0.061 A 
ATOM      2  C   LIG    1      170.139 152.585 148.271  0.00  0.00    +0.039 A 
ATOM      3  C   LIG    1      168.866 153.126 148.375  0.00  0.00    +0.048 A 
ATOM      4  N   LIG    1      168.659 154.191 149.289  0.00  0.00    -0.284 N 
ATOM      5  H   LIG    1      169.457 154.749 149.620  0.00  0.00    +0.155 HD
ATOM      6  C   LIG    1      167.448 154.630 149.717  0.00  0.00    +0.227 C 
ATOM      7  C   LIG    1      166.182 153.839 149.445  0.00  0.00    +0.170 C 
ATOM      8  S   LIG    1      166.202 153.325 147.687  0.00  0.00    -0.114 S 
ATOM      9  O   LIG    1      167.452 155.659 150.357  0.00  0.00    -0.275 OA
ATOM     10  C   LIG    1      167.811 152.664 147.562  0.00  0.00    +0.030 A 
ATOM     11  C   LIG    1      168.076 151.660 146.627  0.00  0.00    +0.017 A 
ATOM     12  C   LIG    1      169.351 151.115 146.521  0.00  0.00    +0.016 A 
ENDROOT
BRANCH   1  14
ATOM     13  O   LIG    1      172.617 151.425 146.502  0.00  0.00    -0.245 OA
ATOM     14  C   LIG    1      171.743 150.992 147.240  0.00  0.00    +0.340 C 
BRANCH  14  15
ATOM     15  O   LIG    1      172.035 149.909 147.999  0.00  0.00    -0.456 OA
BRANCH  15  16
ATOM     16  C   LIG    1      171.044 148.907 148.352  0.00  0.00    +0.268 C 
BRANCH  16  17
ATOM     17  C   LIG    1      171.101 147.889 147.228  0.00  0.00    -0.010 A 
ATOM     18  C   LIG    1      169.953 147.584 146.497  0.00  0.00    +0.008 A 
ATOM     19  C   LIG    1      170.005 146.652 145.464  0.00  0.00    +0.015 A 
ATOM     20  C   LIG    1      171.207 146.020 145.153  0.00  0.00    +0.018 A 
ATOM     21 BR   LIG    1      171.277 144.751 143.750  0.00  0.00    -0.050 Br
ATOM     22  C   LIG    1      172.356 146.326 145.876  0.00  0.00    +0.015 A 
ATOM     23  C   LIG    1      172.304 147.259 146.908  0.00  0.00    +0.008 A 
ENDBRANCH  16  17
ENDBRANCH  15  16
ENDBRANCH  14  15
ENDBRANCH   1  14
TORSDOF 4
