REMARK VINA RESULT:      -6.0      1.643      5.088
REMARK  Name = 
REMARK                            x       y       z     vdW  Elec       q    Type
REMARK                         _______ _______ _______ _____ _____    ______ ____
ROOT
ATOM      1  C   LIG    1      169.585 150.857 148.293  0.00  0.00    -0.010 A 
ATOM      2  C   LIG    1      168.755 151.973 148.273  0.00  0.00    -0.007 A 
ATOM      3  C   LIG    1      167.596 152.018 148.992  0.00  0.00    -0.010 A 
ATOM      4  C   LIG    1      167.263 150.941 149.737  0.00  0.00    -0.006 A 
ATOM      5  C   LIG    1      168.049 149.768 149.818  0.00  0.00    +0.002 A 
ATOM      6  C   LIG    1      169.197 149.792 149.073  0.00  0.00    -0.006 A 
ENDROOT
BRANCH   1   8
ATOM      7  C   LIG    1      172.033 150.346 148.213  0.00  0.00    +0.020 C 
ATOM      8  C   LIG    1      170.825 150.899 147.490  0.00  0.00    +0.098 C 
ATOM      9  C   LIG    1      171.108 152.289 146.924  0.00  0.00    +0.020 C 
BRANCH   8  10
ATOM     10  C   LIG    1      170.644 150.063 146.267  0.00  0.00    +0.075 C 
ATOM     11  N   LIG    1      170.490 149.392 145.312  0.00  0.00    -0.196 NA
ENDBRANCH   8  10
ENDBRANCH   1   8
BRANCH   3  12
ATOM     12  C   LIG    1      166.678 153.207 148.958  0.00  0.00    +0.098 C 
ATOM     13  C   LIG    1      165.437 152.921 149.726  0.00  0.00    +0.020 C 
ATOM     14  C   LIG    1      166.445 153.544 147.494  0.00  0.00    +0.020 C 
BRANCH  12  15
ATOM     15  C   LIG    1      167.347 154.341 149.588  0.00  0.00    +0.075 C 
ATOM     16  N   LIG    1      167.886 155.259 150.098  0.00  0.00    -0.196 NA
ENDBRANCH  12  15
ENDBRANCH   3  12
BRANCH   5  17
ATOM     17  C   LIG    1      167.512 148.759 150.686  0.00  0.00    +0.156 C 
BRANCH  17  18
ATOM     18  N   LIG    1      167.204 147.473 150.192  0.00  0.00    -0.226 N 
ATOM     19  N   LIG    1      166.160 147.160 149.440  0.00  0.00    -0.145 NA
ATOM     20  C   LIG    1      166.160 145.842 149.198  0.00  0.00    +0.221 A 
ATOM     21  N   LIG    1      167.237 145.296 149.814  0.00  0.00    -0.201 NA
ATOM     22  C   LIG    1      167.870 146.315 150.422  0.00  0.00    +0.198 A 
ENDBRANCH  17  18
ENDBRANCH   5  17
TORSDOF 6
