REMARK VINA RESULT:      -8.7      0.000      0.000
REMARK  Name = ZINC000000622958
REMARK                            x       y       z     vdW  Elec       q    Type
REMARK                         _______ _______ _______ _____ _____    ______ ____
ROOT
ATOM      1  C   LIG    1      170.180 144.968 144.630  0.00  0.00    +0.271 C 
ATOM      2  N   LIG    1      170.818 145.322 145.873  0.00  0.00    -0.157 N 
ATOM      3  C   LIG    1      171.170 146.588 145.915  0.00  0.00    +0.250 C 
ATOM      4  C   LIG    1      171.869 147.266 147.085  0.00  0.00    +0.124 C 
ATOM      5  C   LIG    1      170.847 148.216 147.752  0.00  0.00    +0.012 C 
ATOM      6  C   LIG    1      170.727 149.512 146.927  0.00  0.00    +0.004 C 
ATOM      7  C   LIG    1      170.066 149.377 145.539  0.00  0.00    +0.045 C 
ATOM      8  C   LIG    1      171.010 148.637 144.571  0.00  0.00    +0.236 C 
ATOM      9  N   LIG    1      170.811 147.201 144.817  0.00  0.00    -0.258 N 
ATOM     10  C   LIG    1      170.060 146.325 143.890  0.00  0.00    +0.323 C 
ENDROOT
BRANCH   1  11
ATOM     11  C   LIG    1      168.810 144.323 144.867  0.00  0.00    +0.034 A 
ATOM     12  C   LIG    1      167.817 145.042 145.556  0.00  0.00    +0.060 A 
ATOM     13  C   LIG    1      166.586 144.445 145.770  0.00  0.00    +0.167 A 
ATOM     14  O   LIG    1      165.526 144.980 146.412  0.00  0.00    -0.453 OA
ATOM     15  C   LIG    1      164.461 143.945 146.374  0.00  0.00    +0.466 C 
ATOM     16  O   LIG    1      165.058 142.803 145.644  0.00  0.00    -0.453 OA
ATOM     17  C   LIG    1      166.315 143.177 145.324  0.00  0.00    +0.166 A 
ATOM     18  C   LIG    1      167.267 142.440 144.639  0.00  0.00    +0.050 A 
ATOM     19  C   LIG    1      168.519 143.019 144.413  0.00  0.00    +0.014 A 
ENDBRANCH   1  11
BRANCH   2  20
ATOM     20  C   LIG    1      170.974 144.402 146.943  0.00  0.00    +0.124 A 
ATOM     21  C   LIG    1      170.084 144.435 148.016  0.00  0.00    +0.050 A 
ATOM     22  C   LIG    1      170.239 143.519 149.053  0.00  0.00    +0.024 A 
ATOM     23  C   LIG    1      171.275 142.582 149.009  0.00  0.00    +0.041 A 
ATOM     24 CL   LIG    1      171.463 141.445 150.299  0.00  0.00    -0.084 Cl
ATOM     25  C   LIG    1      172.162 142.559 147.927  0.00  0.00    +0.024 A 
ATOM     26  C   LIG    1      172.013 143.472 146.888  0.00  0.00    +0.050 A 
ENDBRANCH   2  20
BRANCH   1  27
ATOM     27  O   LIG    1      171.089 144.113 143.950  0.00  0.00    -0.347 OA
ATOM     28  H   LIG    1      171.593 144.653 143.323  0.00  0.00    +0.215 HD
ENDBRANCH   1  27
TORSDOF 3
