REMARK VINA RESULT:      -7.3      3.222      6.966
REMARK  Name = ZINC000049408611
REMARK                            x       y       z     vdW  Elec       q    Type
REMARK                         _______ _______ _______ _____ _____    ______ ____
ROOT
ATOM      1  N   LIG    1      169.209 146.614 146.202  0.00  0.00    -0.199 N 
ENDROOT
BRANCH   1   2
ATOM      2  C   LIG    1      168.509 145.423 145.937  0.00  0.00    +0.053 A 
ATOM      3  C   LIG    1      167.146 145.278 146.212  0.00  0.00    +0.044 A 
ATOM      4  C   LIG    1      166.517 144.075 145.907  0.00  0.00    +0.043 A 
ATOM      5 CL   LIG    1      164.828 143.881 146.237  0.00  0.00    -0.083 Cl
ATOM      6  C   LIG    1      167.235 143.024 145.330  0.00  0.00    +0.020 A 
ATOM      7  C   LIG    1      168.593 143.178 145.064  0.00  0.00    +0.003 A 
ATOM      8  C   LIG    1      169.235 144.374 145.368  0.00  0.00    +0.025 A 
ENDBRANCH   1   2
BRANCH   1  10
ATOM      9  O   LIG    1      171.454 146.198 147.235  0.00  0.00    -0.150 OA
ATOM     10  S   LIG    1      170.122 146.534 147.594  0.00  0.00    +0.076 S 
ATOM     11  O   LIG    1      169.476 145.668 148.514  0.00  0.00    -0.150 OA
BRANCH  10  12
ATOM     12  C   LIG    1      170.113 148.218 148.253  0.00  0.00    +0.125 A 
ATOM     13  C   LIG    1      168.939 148.813 148.637  0.00  0.00    +0.123 A 
ATOM     14  N   LIG    1      168.977 150.114 149.145  0.00  0.00    -0.287 N 
ATOM     15  C   LIG    1      167.988 150.886 149.591  0.00  0.00    +0.229 A 
ATOM     16  N   LIG    1      168.472 152.023 149.987  0.00  0.00    -0.137 NA
ATOM     17  N   LIG    1      169.824 151.998 149.791  0.00  0.00    -0.130 NA
ATOM     18  C   LIG    1      170.115 150.825 149.275  0.00  0.00    +0.161 A 
ATOM     19  C   LIG    1      171.342 150.228 148.862  0.00  0.00    +0.050 A 
ATOM     20  C   LIG    1      171.344 148.958 148.359  0.00  0.00    +0.034 A 
ENDBRANCH  10  12
ENDBRANCH   1  10
BRANCH   1  21
ATOM     21  C   LIG    1      170.107 147.075 145.135  0.00  0.00    +0.166 C 
BRANCH  21  22
ATOM     22  C   LIG    1      169.836 148.561 144.990  0.00  0.00    -0.028 A 
ATOM     23  C   LIG    1      168.529 149.052 144.988  0.00  0.00    +0.005 A 
ATOM     24  C   LIG    1      168.291 150.417 144.863  0.00  0.00    +0.000 A 
ATOM     25  C   LIG    1      169.358 151.301 144.737  0.00  0.00    +0.000 A 
ATOM     26  C   LIG    1      170.662 150.820 144.739  0.00  0.00    +0.000 A 
ATOM     27  C   LIG    1      170.901 149.455 144.867  0.00  0.00    +0.005 A 
ENDBRANCH  21  22
ENDBRANCH   1  21
TORSDOF 5
