REMARK VINA RESULT:      -5.6     66.317     69.036
REMARK  Name = 
REMARK                            x       y       z     vdW  Elec       q    Type
REMARK                         _______ _______ _______ _____ _____    ______ ____
ROOT
ATOM      1  C   LIG    1      189.804  87.939 158.465  0.00  0.00    -0.010 A 
ATOM      2  C   LIG    1      189.229  86.682 158.625  0.00  0.00    -0.007 A 
ATOM      3  C   LIG    1      189.946  85.536 158.430  0.00  0.00    -0.010 A 
ATOM      4  C   LIG    1      191.244  85.646 158.074  0.00  0.00    -0.006 A 
ATOM      5  C   LIG    1      191.908  86.882 157.894  0.00  0.00    +0.002 A 
ATOM      6  C   LIG    1      191.131  87.989 158.105  0.00  0.00    -0.006 A 
ENDROOT
BRANCH   1   8
ATOM      7  C   LIG    1      187.474  88.826 158.667  0.00  0.00    +0.020 C 
ATOM      8  C   LIG    1      188.955  89.126 158.705  0.00  0.00    +0.098 C 
ATOM      9  C   LIG    1      189.308  90.292 157.785  0.00  0.00    +0.020 C 
BRANCH   8  10
ATOM     10  C   LIG    1      189.244  89.664 160.066  0.00  0.00    +0.075 C 
ATOM     11  N   LIG    1      189.456  90.082 161.146  0.00  0.00    -0.196 NA
ENDBRANCH   8  10
ENDBRANCH   1   8
BRANCH   3  12
ATOM     12  C   LIG    1      189.330  84.174 158.574  0.00  0.00    +0.098 C 
ATOM     13  C   LIG    1      189.786  83.284 157.472  0.00  0.00    +0.020 C 
ATOM     14  C   LIG    1      187.824  84.373 158.635  0.00  0.00    +0.020 C 
BRANCH  12  15
ATOM     15  C   LIG    1      189.766  83.586 159.837  0.00  0.00    +0.075 C 
ATOM     16  N   LIG    1      190.120  83.113 160.858  0.00  0.00    -0.196 NA
ENDBRANCH  12  15
ENDBRANCH   3  12
BRANCH   5  17
ATOM     17  C   LIG    1      193.292  86.759 157.536  0.00  0.00    +0.156 C 
BRANCH  17  18
ATOM     18  N   LIG    1      194.302  87.288 158.371  0.00  0.00    -0.226 N 
ATOM     19  N   LIG    1      194.753  86.737 159.487  0.00  0.00    -0.145 NA
ATOM     20  C   LIG    1      195.673  87.536 160.042  0.00  0.00    +0.221 A 
ATOM     21  N   LIG    1      195.816  88.631 159.256  0.00  0.00    -0.201 NA
ATOM     22  C   LIG    1      194.963  88.462 158.230  0.00  0.00    +0.198 A 
ENDBRANCH  17  18
ENDBRANCH   5  17
TORSDOF 6
