REMARK VINA RESULT:      -6.8      2.116      2.856
REMARK  Name = ZINC000000623204
REMARK                            x       y       z     vdW  Elec       q    Type
REMARK                         _______ _______ _______ _____ _____    ______ ____
ROOT
ATOM      1  C   LIG    1      168.681 147.562 146.381  0.00  0.00    +0.124 A 
ATOM      2  C   LIG    1      169.229 146.963 147.525  0.00  0.00    +0.067 A 
ATOM      3 CL   LIG    1      169.515 145.254 147.635  0.00  0.00    -0.082 Cl
ATOM      4  C   LIG    1      169.544 147.739 148.644  0.00  0.00    +0.023 A 
ATOM      5  C   LIG    1      169.311 149.107 148.638  0.00  0.00    +0.014 A 
ATOM      6  C   LIG    1      168.761 149.730 147.508  0.00  0.00    +0.039 A 
ATOM      7  C   LIG    1      168.450 148.939 146.393  0.00  0.00    +0.043 A 
ENDROOT
BRANCH   6   8
ATOM      8  C   LIG    1      168.500 151.169 147.474  0.00  0.00    +0.245 C 
ATOM      9  N   LIG    1      168.162 151.817 148.625  0.00  0.00    -0.305 N 
ATOM     10  H   LIG    1      168.094 151.296 149.504  0.00  0.00    +0.150 HD
ATOM     11  O   LIG    1      168.581 151.840 146.452  0.00  0.00    -0.270 OA
BRANCH   9  12
ATOM     12  C   LIG    1      167.816 153.224 148.677  0.00  0.00    +0.100 C 
ATOM     13  C   LIG    1      168.744 153.893 149.700  0.00  0.00    +0.033 C 
BRANCH  12  14
ATOM     14  C   LIG    1      166.379 153.289 149.175  0.00  0.00    -0.027 A 
ATOM     15  C   LIG    1      166.032 153.959 150.354  0.00  0.00    +0.005 A 
ATOM     16  C   LIG    1      164.709 153.988 150.786  0.00  0.00    +0.000 A 
ATOM     17  C   LIG    1      163.720 153.349 150.047  0.00  0.00    +0.000 A 
ATOM     18  C   LIG    1      164.055 152.680 148.875  0.00  0.00    +0.000 A 
ATOM     19  C   LIG    1      165.378 152.650 148.442  0.00  0.00    +0.005 A 
ENDBRANCH  12  14
ENDBRANCH   9  12
ENDBRANCH   6   8
BRANCH   1  20
ATOM     20  S   LIG    1      168.284 146.597 144.915  0.00  0.00    +0.062 S 
ATOM     21  O   LIG    1      167.581 145.430 145.322  0.00  0.00    -0.153 OA
ATOM     22  O   LIG    1      167.609 147.431 143.982  0.00  0.00    -0.153 OA
BRANCH  20  23
ATOM     23  N   LIG    1      169.753 146.142 144.279  0.00  0.00    -0.177 NA
BRANCH  23  25
ATOM     24  C   LIG    1      171.111 148.161 144.049  0.00  0.00    +0.022 C 
ATOM     25  C   LIG    1      171.013 146.775 144.704  0.00  0.00    +0.106 C 
ENDBRANCH  23  25
BRANCH  23  26
ATOM     26  C   LIG    1      169.910 144.759 143.824  0.00  0.00    +0.106 C 
ATOM     27  C   LIG    1      171.212 144.284 144.475  0.00  0.00    +0.022 C 
ENDBRANCH  23  26
ENDBRANCH  20  23
ENDBRANCH   1  20
TORSDOF 7
