REMARK VINA RESULT:      -4.5      0.000      0.000
REMARK  Name = 
REMARK                            x       y       z     vdW  Elec       q    Type
REMARK                         _______ _______ _______ _____ _____    ______ ____
ROOT
ATOM      1  C   LIG    1      166.417 155.882 150.767  0.00  0.00    +0.160 A 
ATOM      2  N   LIG    1      167.618 155.572 150.251  0.00  0.00    -0.236 NA
ATOM      3  C   LIG    1      167.926 154.337 149.832  0.00  0.00    +0.120 A 
ATOM      4  C   LIG    1      167.016 153.303 149.906  0.00  0.00    +0.120 A 
ATOM      5  N   LIG    1      165.811 153.600 150.420  0.00  0.00    -0.239 NA
ATOM      6  C   LIG    1      165.499 154.839 150.842  0.00  0.00    +0.123 A 
ENDROOT
BRANCH   1   8
ATOM      7  N   LIG    1      166.782 158.278 150.925  0.00  0.00    -0.101 NA
ATOM      8  C   LIG    1      166.100 157.229 151.217  0.00  0.00    +0.316 C 
ATOM      9  O   LIG    1      164.986 157.404 152.018  0.00  0.00    -0.262 OA
ENDBRANCH   1   8
TORSDOF 1
