REMARK VINA RESULT:      -6.4     74.595     77.555
REMARK  Name = ZINC000049399659
REMARK                            x       y       z     vdW  Elec       q    Type
REMARK                         _______ _______ _______ _____ _____    ______ ____
ROOT
ATOM      1  C   LIG    1      182.528  85.742 155.086  0.00  0.00    +0.173 C 
ENDROOT
BRANCH   1   4
ATOM      2  N   LIG    1      184.635  86.357 153.975  0.00  0.00    -0.282 N 
ATOM      3  H   LIG    1      185.048  85.921 154.813  0.00  0.00    +0.155 HD
ATOM      4  C   LIG    1      183.266  86.460 153.977  0.00  0.00    +0.228 C 
ATOM      5  O   LIG    1      182.683  87.105 153.130  0.00  0.00    -0.275 OA
BRANCH   2   7
ATOM      6  C   LIG    1      186.098  88.145 153.316  0.00  0.00    +0.141 A 
ATOM      7  C   LIG    1      185.595  86.861 153.051  0.00  0.00    +0.077 A 
ATOM      8  C   LIG    1      186.052  86.143 151.945  0.00  0.00    +0.047 A 
ATOM      9  C   LIG    1      187.000  86.723 151.100  0.00  0.00    +0.043 A 
ATOM     10 CL   LIG    1      187.576  85.847 149.723  0.00  0.00    -0.083 Cl
ATOM     11  C   LIG    1      187.494  88.006 151.356  0.00  0.00    +0.024 A 
ATOM     12  C   LIG    1      187.045  88.718 152.466  0.00  0.00    +0.049 A 
BRANCH   6  14
ATOM     13  C   LIG    1      185.704  90.252 154.647  0.00  0.00    +0.277 C 
ATOM     14  O   LIG    1      185.630  88.821 154.445  0.00  0.00    -0.493 OA
ENDBRANCH   6  14
ENDBRANCH   2   7
ENDBRANCH   1   4
BRANCH   1  15
ATOM     15  S   LIG    1      183.013  86.568 156.650  0.00  0.00    -0.077 S 
BRANCH  15  16
ATOM     16  C   LIG    1      184.200  85.481 157.298  0.00  0.00    +0.190 A 
ATOM     17  N   LIG    1      185.449  85.579 156.838  0.00  0.00    -0.207 NA
ATOM     18  C   LIG    1      186.358  84.755 157.330  0.00  0.00    +0.126 A 
ATOM     19  C   LIG    1      186.027  83.814 158.300  0.00  0.00    +0.063 A 
ATOM     20  C   LIG    1      184.718  83.758 158.727  0.00  0.00    +0.117 A 
ATOM     21  N   LIG    1      183.812  84.585 158.225  0.00  0.00    -0.230 NA
BRANCH  18  22
ATOM     22  N   LIG    1      187.665  84.849 156.863  0.00  0.00    -0.315 N 
ATOM     23  C   LIG    1      188.456  83.604 156.890  0.00  0.00    +0.106 C 
ATOM     24  C   LIG    1      189.929  84.036 156.999  0.00  0.00    +0.019 C 
ATOM     25  C   LIG    1      190.267  84.888 155.763  0.00  0.00    +0.003 C 
ATOM     26  C   LIG    1      189.368  86.135 155.731  0.00  0.00    +0.019 C 
ATOM     27  C   LIG    1      187.900  85.674 155.657  0.00  0.00    +0.106 C 
ENDBRANCH  18  22
ENDBRANCH  15  16
ENDBRANCH   1  15
TORSDOF 6
