REMARK VINA RESULT:      -7.7     45.758     52.155
REMARK  Name = 
REMARK                            x       y       z     vdW  Elec       q    Type
REMARK                         _______ _______ _______ _____ _____    ______ ____
ROOT
ATOM      1  C   LIG    1      196.772 101.840 155.134  0.00  0.00    +0.072 C 
ATOM      2  C   LIG    1      197.716 100.976 156.083  0.00  0.00    +0.070 C 
ATOM      3  N   LIG    1      198.971 101.028 155.175  0.00  0.00    -0.269 NA
ATOM      4  C   LIG    1      199.130  99.894 154.453  0.00  0.00    +0.073 C 
ATOM      5  C   LIG    1      197.730  99.284 154.281  0.00  0.00    +0.024 C 
ATOM      6  C   LIG    1      199.038 102.186 154.388  0.00  0.00    +0.099 C 
ATOM      7  C   LIG    1      198.055 101.939 153.256  0.00  0.00    -0.013 C 
ATOM      8  C   LIG    1      197.351  99.471 155.588  0.00  0.00    +0.055 C 
ATOM      9  C   LIG    1      195.884  99.106 156.046  0.00  0.00    +0.127 C 
ATOM     10  C   LIG    1      195.032 100.206 155.283  0.00  0.00    +0.268 C 
ATOM     11  O   LIG    1      195.206 100.111 153.957  0.00  0.00    -0.209 OA
ATOM     12  N   LIG    1      196.045  99.589 157.443  0.00  0.00    -0.250 N 
ATOM     13  C   LIG    1      195.295 100.423 158.182  0.00  0.00    +0.307 C 
ATOM     14  O   LIG    1      195.492 100.763 159.362  0.00  0.00    -0.265 OA
ATOM     15  C   LIG    1      197.250  98.873 157.790  0.00  0.00    +0.053 A 
ATOM     16  C   LIG    1      197.572  98.359 159.022  0.00  0.00    +0.051 A 
ATOM     17  C   LIG    1      198.783  97.670 159.131  0.00  0.00    +0.137 A 
ATOM     18  C   LIG    1      199.617  97.512 158.065  0.00  0.00    +0.026 A 
ATOM     19  C   LIG    1      199.228  98.056 156.854  0.00  0.00    -0.003 A 
ATOM     20  C   LIG    1      198.047  98.748 156.679  0.00  0.00    -0.006 A 
ATOM     21  C   LIG    1      195.317 101.653 155.878  0.00  0.00    +0.213 C 
ATOM     22  C   LIG    1      196.852 101.764 153.794  0.00  0.00    -0.025 C 
ENDROOT
BRANCH  18  23
ATOM     23  C   LIG    1      200.902  96.806 158.273  0.00  0.00    +0.146 C 
ATOM     24  C   LIG    1      200.766  95.329 158.164  0.00  0.00    +0.068 A 
ATOM     25  C   LIG    1      201.810  94.462 158.277  0.00  0.00    -0.005 A 
ATOM     26  C   LIG    1      201.283  93.164 158.121  0.00  0.00    +0.015 A 
ATOM     27  C   LIG    1      199.920  93.284 157.914  0.00  0.00    +0.081 A 
ATOM     28  C   LIG    1      199.169  92.126 157.730  0.00  0.00    +0.019 A 
ATOM     29  C   LIG    1      199.735  90.870 157.746  0.00  0.00    +0.002 A 
ATOM     30  C   LIG    1      201.083  90.746 157.951  0.00  0.00    +0.000 A 
ATOM     31  C   LIG    1      201.817  91.892 158.132  0.00  0.00    +0.001 A 
ATOM     32  C   LIG    1      203.229  94.731 158.513  0.00  0.00    +0.045 C 
ATOM     33  C   LIG    1      203.855  94.197 159.728  0.00  0.00    +0.077 C 
ATOM     34  N   LIG    1      203.692  94.937 160.936  0.00  0.00    -0.270 NA
ATOM     35  C   LIG    1      204.676  95.971 161.180  0.00  0.00    +0.103 C 
ATOM     36  C   LIG    1      204.145  97.157 161.931  0.00  0.00    +0.141 C 
ATOM     37  C   LIG    1      202.972  97.856 161.226  0.00  0.00    +0.033 C 
ATOM     38  C   LIG    1      202.792  96.867 159.962  0.00  0.00    +0.020 C 
ATOM     39  O   LIG    1      205.198  98.102 161.958  0.00  0.00    -0.224 OA
ATOM     40  C   LIG    1      202.421  95.580 160.930  0.00  0.00    +0.072 C 
ATOM     41  N   LIG    1      199.651  94.577 157.946  0.00  0.00    -0.249 NA
ATOM     42  C   LIG    1      201.251  97.181 159.688  0.00  0.00    +0.022 C 
BRANCH  36  43
ATOM     43  C   LIG    1      203.740  96.851 163.332  0.00  0.00    +0.032 C 
ATOM     44  C   LIG    1      203.590  98.134 164.109  0.00  0.00    +0.003 C 
ENDBRANCH  36  43
BRANCH  23  45
ATOM     45  C   LIG    1      201.831  97.214 157.228  0.00  0.00    +0.325 C 
ATOM     46  O   LIG    1      202.527  98.273 157.488  0.00  0.00    -0.249 OA
BRANCH  45  47
ATOM     47  O   LIG    1      202.108  96.683 156.006  0.00  0.00    -0.444 OA
ATOM     48  C   LIG    1      202.465  97.464 154.882  0.00  0.00    +0.256 C 
ENDBRANCH  45  47
ENDBRANCH  23  45
ENDBRANCH  18  23
BRANCH   1  50
ATOM     49  C   LIG    1      197.142 103.406 156.729  0.00  0.00    +0.001 C 
ATOM     50  C   LIG    1      197.113 103.264 155.641  0.00  0.00    +0.009 C 
ENDBRANCH   1  50
BRANCH  10  51
ATOM     51  C   LIG    1      193.656  99.739 155.521  0.00  0.00    +0.350 C 
ATOM     52  O   LIG    1      192.640 100.448 155.712  0.00  0.00    -0.247 OA
BRANCH  51  53
ATOM     53  O   LIG    1      193.355  98.365 155.557  0.00  0.00    -0.443 OA
ATOM     54  C   LIG    1      192.510  97.791 156.515  0.00  0.00    +0.256 C 
ENDBRANCH  51  53
ENDBRANCH  10  51
BRANCH  17  55
ATOM     55  O   LIG    1      199.069  97.152 160.420  0.00  0.00    -0.472 OA
ATOM     56  C   LIG    1      198.063  96.637 161.253  0.00  0.00    +0.252 C 
ENDBRANCH  17  55
BRANCH  21  57
ATOM     57  O   LIG    1      194.606 102.437 154.790  0.00  0.00    -0.449 OA
BRANCH  57  58
ATOM     58  C   LIG    1      193.874 103.488 155.249  0.00  0.00    +0.318 C 
ATOM     59  O   LIG    1      193.440 104.493 154.676  0.00  0.00    -0.250 OA
ATOM     60  C   LIG    1      193.510 103.449 156.725  0.00  0.00    +0.121 C 
ENDBRANCH  57  58
ENDBRANCH  21  57
TORSDOF 10
