REMARK VINA RESULT:      -7.7      5.720      7.637
REMARK  Name = ZINC000006083766
REMARK                            x       y       z     vdW  Elec       q    Type
REMARK                         _______ _______ _______ _____ _____    ______ ____
ROOT
ATOM      1  O   LIG    1      165.731 143.428 148.103  0.00  0.00    -0.468 OA
ENDROOT
BRANCH   1   2
ATOM      2  C   LIG    1      165.982 143.059 149.385  0.00  0.00    +0.227 A 
ATOM      3  C   LIG    1      165.448 143.811 150.446  0.00  0.00    +0.073 A 
ATOM      4  C   LIG    1      164.632 144.978 150.477  0.00  0.00    -0.023 A 
ATOM      5  C   LIG    1      164.128 145.715 149.244  0.00  0.00    +0.037 C 
ATOM      6  C   LIG    1      163.020 146.692 149.678  0.00  0.00    +0.005 C 
ATOM      7  C   LIG    1      163.428 147.502 150.921  0.00  0.00    +0.005 C 
ATOM      8  C   LIG    1      163.544 146.594 152.157  0.00  0.00    +0.043 C 
ATOM      9  C   LIG    1      164.374 145.394 151.751  0.00  0.00    -0.004 A 
ATOM     10  S   LIG    1      165.093 144.365 152.950  0.00  0.00    -0.073 S 
ATOM     11  C   LIG    1      165.772 143.362 151.716  0.00  0.00    +0.116 A 
ATOM     12  N   LIG    1      166.541 142.268 151.932  0.00  0.00    -0.228 NA
ATOM     13  C   LIG    1      166.987 141.630 150.877  0.00  0.00    +0.226 A 
ATOM     14  N   LIG    1      166.730 141.997 149.593  0.00  0.00    -0.201 NA
ENDBRANCH   1   2
BRANCH   1  15
ATOM     15  C   LIG    1      166.589 143.041 146.991  0.00  0.00    +0.310 C 
BRANCH  15  17
ATOM     16  O   LIG    1      165.383 144.000 145.187  0.00  0.00    -0.288 OA
ATOM     17  C   LIG    1      166.401 144.039 145.853  0.00  0.00    +0.200 C 
BRANCH  17  18
ATOM     18  C   LIG    1      167.412 145.066 145.597  0.00  0.00    +0.025 A 
ATOM     19  C   LIG    1      168.648 145.069 146.274  0.00  0.00    +0.061 A 
ATOM     20  C   LIG    1      169.582 146.058 146.004  0.00  0.00    +0.163 A 
ATOM     21  O   LIG    1      170.798 146.035 146.653  0.00  0.00    -0.485 OA
ATOM     22  C   LIG    1      171.883 146.845 146.104  0.00  0.00    +0.270 C 
ATOM     23  C   LIG    1      171.302 148.240 145.820  0.00  0.00    +0.270 C 
ATOM     24  O   LIG    1      170.225 148.063 144.851  0.00  0.00    -0.485 OA
ATOM     25  C   LIG    1      169.303 147.070 145.079  0.00  0.00    +0.162 A 
ATOM     26  C   LIG    1      168.094 147.080 144.396  0.00  0.00    +0.050 A 
ATOM     27  C   LIG    1      167.156 146.085 144.656  0.00  0.00    +0.015 A 
ENDBRANCH  17  18
ENDBRANCH  15  17
ENDBRANCH   1  15
TORSDOF 4
