REMARK VINA RESULT:      -6.8      3.732      7.786
REMARK  Name = ZINC000186872603
REMARK                            x       y       z     vdW  Elec       q    Type
REMARK                         _______ _______ _______ _____ _____    ______ ____
ROOT
ATOM      1  N   LIG    1      167.903 145.997 147.063  0.00  0.00    -0.297 N 
ATOM      2  C   LIG    1      167.189 144.813 146.517  0.00  0.00    +0.123 C 
ATOM      3  C   LIG    1      165.933 144.558 147.389  0.00  0.00    +0.103 C 
ATOM      4  N   LIG    1      166.318 144.331 148.812  0.00  0.00    -0.299 NA
ATOM      5  C   LIG    1      167.022 145.546 149.332  0.00  0.00    +0.103 C 
ATOM      6  C   LIG    1      168.287 145.878 148.495  0.00  0.00    +0.123 C 
ENDROOT
BRANCH   1  10
ATOM      7  C   LIG    1      171.358 145.998 143.774  0.00  0.00    +0.066 C 
ATOM      8  C   LIG    1      170.380 146.752 144.642  0.00  0.00    +0.044 A 
ATOM      9  N   LIG    1      169.599 146.066 145.450  0.00  0.00    -0.220 NA
ATOM     10  C   LIG    1      168.726 146.729 146.218  0.00  0.00    +0.218 A 
ATOM     11  N   LIG    1      168.602 148.062 146.214  0.00  0.00    -0.219 NA
ATOM     12  C   LIG    1      169.371 148.778 145.410  0.00  0.00    +0.049 A 
ATOM     13  C   LIG    1      170.289 148.134 144.595  0.00  0.00    +0.046 A 
BRANCH  12  14
ATOM     14  C   LIG    1      169.240 150.298 145.391  0.00  0.00    +0.032 C 
ATOM     15  C   LIG    1      168.084 150.695 144.459  0.00  0.00    +0.014 C 
ATOM     16  C   LIG    1      170.564 150.914 144.910  0.00  0.00    +0.014 C 
ENDBRANCH  12  14
ENDBRANCH   1  10
BRANCH   4  17
ATOM     17  C   LIG    1      167.051 143.062 149.007  0.00  0.00    +0.085 C 
BRANCH  17  18
ATOM     18  C   LIG    1      166.111 142.190 149.858  0.00  0.00    +0.025 C 
BRANCH  18  19
ATOM     19  C   LIG    1      166.859 141.767 151.138  0.00  0.00    +0.097 C 
BRANCH  19  20
ATOM     20  C   LIG    1      167.055 142.990 152.009  0.00  0.00    +0.197 A 
ATOM     21  O   LIG    1      165.988 143.793 152.267  0.00  0.00    -0.440 OA
ATOM     22  C   LIG    1      166.472 144.760 153.053  0.00  0.00    +0.155 A 
ATOM     23  C   LIG    1      165.816 145.851 153.620  0.00  0.00    +0.048 A 
ATOM     24  C   LIG    1      166.567 146.715 154.410  0.00  0.00    +0.004 A 
ATOM     25  C   LIG    1      167.942 146.478 154.616  0.00  0.00    +0.002 A 
ATOM     26  C   LIG    1      168.568 145.376 154.035  0.00  0.00    +0.031 A 
ATOM     27  C   LIG    1      167.809 144.511 153.244  0.00  0.00    +0.110 A 
ATOM     28  N   LIG    1      168.148 143.366 152.561  0.00  0.00    -0.213 NA
ENDBRANCH  19  20
ENDBRANCH  18  19
ENDBRANCH  17  18
ENDBRANCH   4  17
TORSDOF 6
