REMARK VINA RESULT:      -7.5     15.243     19.398
REMARK  Name = 
REMARK                            x       y       z     vdW  Elec       q    Type
REMARK                         _______ _______ _______ _____ _____    ______ ____
ROOT
ATOM      1  C   LIG    1      189.035 103.314 150.354  0.00  0.00    +0.072 C 
ATOM      2  C   LIG    1      189.132 104.910 150.393  0.00  0.00    +0.070 C 
ATOM      3  N   LIG    1      189.576 105.027 151.870  0.00  0.00    -0.269 NA
ATOM      4  C   LIG    1      188.648 105.850 152.507  0.00  0.00    +0.073 C 
ATOM      5  C   LIG    1      187.362 105.108 152.112  0.00  0.00    +0.024 C 
ATOM      6  C   LIG    1      190.052 103.892 152.470  0.00  0.00    +0.099 C 
ATOM      7  C   LIG    1      188.928 102.881 152.579  0.00  0.00    -0.013 C 
ATOM      8  C   LIG    1      187.582 105.247 150.639  0.00  0.00    +0.055 C 
ATOM      9  C   LIG    1      186.741 104.116 149.891  0.00  0.00    +0.120 C 
ATOM     10  C   LIG    1      187.554 103.922 148.522  0.00  0.00    +0.268 C 
ATOM     11  O   LIG    1      186.546 103.122 147.941  0.00  0.00    -0.209 OA
ATOM     12  N   LIG    1      185.682 105.049 149.225  0.00  0.00    -0.304 N 
ATOM     13  C   LIG    1      184.526 104.514 148.564  0.00  0.00    +0.112 C 
ATOM     14  C   LIG    1      186.066 106.361 149.400  0.00  0.00    +0.047 A 
ATOM     15  C   LIG    1      185.476 107.479 148.862  0.00  0.00    +0.051 A 
ATOM     16  C   LIG    1      185.916 108.762 149.093  0.00  0.00    +0.137 A 
ATOM     17  C   LIG    1      187.002 108.906 149.907  0.00  0.00    +0.026 A 
ATOM     18  C   LIG    1      187.585 107.777 150.441  0.00  0.00    -0.003 A 
ATOM     19  C   LIG    1      187.147 106.493 150.211  0.00  0.00    -0.007 A 
ATOM     20  C   LIG    1      188.752 102.886 148.834  0.00  0.00    +0.213 C 
ATOM     21  C   LIG    1      188.452 102.645 151.355  0.00  0.00    -0.025 C 
ENDROOT
BRANCH  17  22
ATOM     22  C   LIG    1      187.507 110.290 150.217  0.00  0.00    +0.146 C 
ATOM     23  C   LIG    1      188.391 110.369 151.370  0.00  0.00    +0.068 A 
ATOM     24  C   LIG    1      189.076 111.431 151.855  0.00  0.00    -0.005 A 
ATOM     25  C   LIG    1      189.805 111.004 152.950  0.00  0.00    +0.015 A 
ATOM     26  C   LIG    1      189.549 109.675 153.114  0.00  0.00    +0.081 A 
ATOM     27  C   LIG    1      190.105 108.894 154.117  0.00  0.00    +0.019 A 
ATOM     28  C   LIG    1      190.962 109.481 155.001  0.00  0.00    +0.002 A 
ATOM     29  C   LIG    1      191.236 110.820 154.856  0.00  0.00    +0.000 A 
ATOM     30  C   LIG    1      190.671 111.592 153.842  0.00  0.00    +0.001 A 
ATOM     31  C   LIG    1      189.041 112.843 151.278  0.00  0.00    +0.045 C 
ATOM     32  C   LIG    1      188.249 113.758 152.191  0.00  0.00    +0.077 C 
ATOM     33  N   LIG    1      187.075 114.315 151.474  0.00  0.00    -0.270 NA
ATOM     34  C   LIG    1      186.014 114.591 152.380  0.00  0.00    +0.103 C 
ATOM     35  C   LIG    1      184.822 113.739 152.343  0.00  0.00    +0.141 C 
ATOM     36  C   LIG    1      184.966 112.311 152.003  0.00  0.00    +0.033 C 
ATOM     37  C   LIG    1      186.531 112.035 151.606  0.00  0.00    +0.020 C 
ATOM     38  O   LIG    1      183.806 114.270 151.506  0.00  0.00    -0.224 OA
ATOM     39  C   LIG    1      186.539 113.314 150.572  0.00  0.00    +0.072 C 
ATOM     40  N   LIG    1      188.706 109.322 152.164  0.00  0.00    -0.249 NA
ATOM     41  C   LIG    1      186.220 111.014 150.428  0.00  0.00    +0.022 C 
BRANCH  35  42
ATOM     42  C   LIG    1      184.189 113.776 153.749  0.00  0.00    +0.032 C 
ATOM     43  C   LIG    1      183.471 112.413 153.792  0.00  0.00    +0.003 C 
ENDBRANCH  35  42
BRANCH  22  44
ATOM     44  C   LIG    1      188.268 110.643 149.012  0.00  0.00    +0.325 C 
ATOM     45  O   LIG    1      187.728 111.435 148.227  0.00  0.00    -0.249 OA
BRANCH  44  46
ATOM     46  O   LIG    1      189.514 110.204 148.635  0.00  0.00    -0.444 OA
ATOM     47  C   LIG    1      190.538 111.144 148.383  0.00  0.00    +0.256 C 
ENDBRANCH  44  46
ENDBRANCH  22  44
ENDBRANCH  17  22
BRANCH   1  49
ATOM     48  C   LIG    1      190.960 102.957 149.158  0.00  0.00    +0.001 C 
ATOM     49  C   LIG    1      190.567 103.003 150.331  0.00  0.00    +0.009 C 
ENDBRANCH   1  49
BRANCH  10  50
ATOM     50  C   LIG    1      187.884 104.923 147.669  0.00  0.00    +0.350 C 
ATOM     51  O   LIG    1      187.184 104.957 146.608  0.00  0.00    -0.247 OA
BRANCH  50  52
ATOM     52  O   LIG    1      188.774 105.971 147.564  0.00  0.00    -0.443 OA
ATOM     53  C   LIG    1      188.612 107.208 146.955  0.00  0.00    +0.256 C 
ENDBRANCH  50  52
ENDBRANCH  10  50
BRANCH  16  54
ATOM     54  O   LIG    1      185.250 109.860 148.493  0.00  0.00    -0.472 OA
ATOM     55  C   LIG    1      183.874 109.726 148.173  0.00  0.00    +0.252 C 
ENDBRANCH  16  54
BRANCH  20  56
ATOM     56  O   LIG    1      187.931 101.671 149.167  0.00  0.00    -0.449 OA
BRANCH  56  57
ATOM     57  C   LIG    1      188.232 100.457 148.656  0.00  0.00    +0.318 C 
ATOM     58  O   LIG    1      189.144 100.320 147.808  0.00  0.00    -0.250 OA
ATOM     59  C   LIG    1      187.490  99.228 149.080  0.00  0.00    +0.121 C 
ENDBRANCH  56  57
ENDBRANCH  20  56
TORSDOF 10
