REMARK VINA RESULT:      -9.0     32.261     35.808
REMARK  Name = 
REMARK                            x       y       z     vdW  Elec       q    Type
REMARK                         _______ _______ _______ _____ _____    ______ ____
ROOT
ATOM      1  C   LIG    1      199.654 118.763 141.148  0.00  0.00    +0.243 C 
ATOM      2  C   LIG    1      198.658 117.517 141.287  0.00  0.00    +0.196 C 
ATOM      3  O   LIG    1      197.940 118.098 142.007  0.00  0.00    -0.292 OA
ATOM      4  C   LIG    1      198.313 116.224 140.974  0.00  0.00    +0.090 C 
ATOM      5  C   LIG    1      199.180 115.290 140.121  0.00  0.00    +0.093 C 
ATOM      6  C   LIG    1      198.146 114.113 139.840  0.00  0.00    +0.191 C 
ATOM      7  C   LIG    1      198.544 113.154 141.037  0.00  0.00    +0.157 C 
ATOM      8  C   LIG    1      197.806 114.119 142.195  0.00  0.00    +0.067 C 
ATOM      9  O   LIG    1      197.259 112.434 140.809  0.00  0.00    -0.349 OA
ATOM     10  C   LIG    1      196.939 113.792 140.555  0.00  0.00    +0.185 C 
ATOM     11  C   LIG    1      200.422 114.557 140.660  0.00  0.00    +0.201 C 
ATOM     12  C   LIG    1      201.563 115.556 141.115  0.00  0.00    +0.170 C 
ATOM     13  C   LIG    1      201.457 116.748 140.203  0.00  0.00    +0.048 C 
ATOM     14  C   LIG    1      202.885 117.370 139.924  0.00  0.00    +0.007 C 
ATOM     15  C   LIG    1      200.930 116.558 138.853  0.00  0.00    +0.007 C 
ATOM     16  O   LIG    1      202.794 115.138 140.629  0.00  0.00    -0.222 OA
ATOM     17  C   LIG    1      201.758 115.794 142.540  0.00  0.00    +0.082 C 
ATOM     18  C   LIG    1      202.766 117.090 142.229  0.00  0.00    +0.189 C 
ATOM     19  C   LIG    1      201.476 118.089 142.166  0.00  0.00    -0.009 C 
ATOM     20  C   LIG    1      201.112 119.021 143.152  0.00  0.00    +0.029 C 
ATOM     21  C   LIG    1      196.887 116.238 140.907  0.00  0.00    +0.010 C 
ATOM     22  C   LIG    1      198.807 115.367 142.279  0.00  0.00    +0.161 C 
ATOM     23  O   LIG    1      197.972 116.055 143.324  0.00  0.00    -0.223 OA
ATOM     24  C   LIG    1      200.909 117.759 141.038  0.00  0.00    -0.000 C 
ENDROOT
BRANCH   1  25
ATOM     25  O   LIG    1      199.503 118.935 139.635  0.00  0.00    -0.440 OA
BRANCH  25  27
ATOM     26  C   LIG    1      198.752 121.211 140.341  0.00  0.00    +0.121 C 
ATOM     27  C   LIG    1      199.192 120.249 139.331  0.00  0.00    +0.318 C 
ATOM     28  O   LIG    1      199.263 120.720 138.167  0.00  0.00    -0.250 OA
ENDBRANCH  25  27
ENDBRANCH   1  25
BRANCH   6  29
ATOM     29  O   LIG    1      197.904 113.834 138.610  0.00  0.00    -0.451 OA
BRANCH  29  30
ATOM     30  C   LIG    1      197.607 114.474 137.487  0.00  0.00    +0.317 C 
ATOM     31  O   LIG    1      196.425 114.626 137.118  0.00  0.00    -0.250 OA
ATOM     32  C   LIG    1      198.578 115.091 136.515  0.00  0.00    +0.121 C 
ENDBRANCH  29  30
ENDBRANCH   6  29
BRANCH  11  33
ATOM     33  O   LIG    1      200.978 113.907 139.577  0.00  0.00    -0.446 OA
BRANCH  33  34
ATOM     34  C   LIG    1      201.467 113.331 138.620  0.00  0.00    +0.341 C 
ATOM     35  O   LIG    1      200.764 112.289 138.593  0.00  0.00    -0.245 OA
BRANCH  34  36
ATOM     36  C   LIG    1      202.455 113.337 137.564  0.00  0.00    +0.076 A 
ATOM     37  C   LIG    1      203.815 113.086 137.865  0.00  0.00    +0.006 A 
ATOM     38  C   LIG    1      204.773 113.079 136.889  0.00  0.00    +0.000 A 
ATOM     39  C   LIG    1      204.471 113.313 135.570  0.00  0.00    +0.000 A 
ATOM     40  C   LIG    1      203.138 113.567 135.226  0.00  0.00    +0.000 A 
ATOM     41  C   LIG    1      202.224 113.560 136.255  0.00  0.00    +0.006 A 
ENDBRANCH  34  36
ENDBRANCH  33  34
ENDBRANCH  11  33
BRANCH  18  42
ATOM     42  O   LIG    1      203.175 117.440 143.647  0.00  0.00    -0.446 OA
BRANCH  42  43
ATOM     43  C   LIG    1      204.252 116.756 143.975  0.00  0.00    +0.350 C 
ATOM     44  O   LIG    1      205.118 116.439 143.131  0.00  0.00    -0.247 OA
BRANCH  43  45
ATOM     45  C   LIG    1      204.603 116.248 145.467  0.00  0.00    +0.273 C 
ATOM     46  O   LIG    1      206.088 116.244 145.314  0.00  0.00    -0.209 OA
BRANCH  45  47
ATOM     47  C   LIG    1      204.419 114.609 144.983  0.00  0.00    +0.159 C 
BRANCH  47  48
ATOM     48  C   LIG    1      202.963 114.365 145.480  0.00  0.00    +0.000 A 
ATOM     49  C   LIG    1      202.453 113.172 145.046  0.00  0.00    -0.003 A 
ATOM     50  C   LIG    1      201.176 112.765 145.373  0.00  0.00    -0.000 A 
ATOM     51  C   LIG    1      200.433 113.609 146.157  0.00  0.00    -0.000 A 
ATOM     52  C   LIG    1      200.931 114.801 146.596  0.00  0.00    -0.000 A 
ATOM     53  C   LIG    1      202.221 115.147 146.229  0.00  0.00    -0.003 A 
ENDBRANCH  47  48
BRANCH  47  54
ATOM     54  N   LIG    1      205.219 114.077 146.183  0.00  0.00    -0.196 NA
ATOM     55  C   LIG    1      205.937 112.943 146.194  0.00  0.00    +0.265 C 
ATOM     56  O   LIG    1      205.992 112.227 145.171  0.00  0.00    -0.268 OA
BRANCH  55  57
ATOM     57  C   LIG    1      206.658 112.536 147.391  0.00  0.00    +0.055 A 
ATOM     58  C   LIG    1      206.110 111.660 148.305  0.00  0.00    +0.005 A 
ATOM     59  C   LIG    1      206.844 111.319 149.411  0.00  0.00    +0.000 A 
ATOM     60  C   LIG    1      208.110 111.817 149.651  0.00  0.00    +0.000 A 
ATOM     61  C   LIG    1      208.647 112.693 148.727  0.00  0.00    +0.000 A 
ATOM     62  C   LIG    1      207.908 113.029 147.623  0.00  0.00    +0.005 A 
ENDBRANCH  55  57
ENDBRANCH  47  54
ENDBRANCH  45  47
ENDBRANCH  43  45
ENDBRANCH  42  43
ENDBRANCH  18  42
TORSDOF 14
