REMARK VINA RESULT:      -7.7      2.382      3.657
REMARK  Name = ZINC000000622958
REMARK                            x       y       z     vdW  Elec       q    Type
REMARK                         _______ _______ _______ _____ _____    ______ ____
ROOT
ATOM      1  C   LIG    1      168.110 143.198 146.530  0.00  0.00    +0.271 C 
ATOM      2  N   LIG    1      169.466 143.148 147.017  0.00  0.00    -0.157 N 
ATOM      3  C   LIG    1      170.320 143.700 146.184  0.00  0.00    +0.250 C 
ATOM      4  C   LIG    1      171.822 143.800 146.405  0.00  0.00    +0.124 C 
ATOM      5  C   LIG    1      172.155 145.284 146.684  0.00  0.00    +0.012 C 
ATOM      6  C   LIG    1      172.185 146.068 145.358  0.00  0.00    +0.004 C 
ATOM      7  C   LIG    1      170.830 146.251 144.644  0.00  0.00    +0.045 C 
ATOM      8  C   LIG    1      170.358 144.911 144.047  0.00  0.00    +0.236 C 
ATOM      9  N   LIG    1      169.697 144.182 145.139  0.00  0.00    -0.258 N 
ATOM     10  C   LIG    1      168.227 144.034 145.230  0.00  0.00    +0.323 C 
ENDROOT
BRANCH   1  11
ATOM     11  C   LIG    1      167.173 143.853 147.550  0.00  0.00    +0.034 A 
ATOM     12  C   LIG    1      166.208 143.069 148.207  0.00  0.00    +0.060 A 
ATOM     13  C   LIG    1      165.362 143.675 149.121  0.00  0.00    +0.167 A 
ATOM     14  O   LIG    1      164.381 143.082 149.833  0.00  0.00    -0.453 OA
ATOM     15  C   LIG    1      163.772 144.156 150.660  0.00  0.00    +0.466 C 
ATOM     16  O   LIG    1      164.530 145.383 150.319  0.00  0.00    -0.453 OA
ATOM     17  C   LIG    1      165.449 145.014 149.401  0.00  0.00    +0.166 A 
ATOM     18  C   LIG    1      166.389 145.818 148.777  0.00  0.00    +0.050 A 
ATOM     19  C   LIG    1      167.252 145.231 147.848  0.00  0.00    +0.014 A 
ENDBRANCH   1  11
BRANCH   2  20
ATOM     20  C   LIG    1      169.804 142.617 148.289  0.00  0.00    +0.124 A 
ATOM     21  C   LIG    1      169.940 141.238 148.447  0.00  0.00    +0.050 A 
ATOM     22  C   LIG    1      170.285 140.730 149.697  0.00  0.00    +0.024 A 
ATOM     23  C   LIG    1      170.491 141.600 150.772  0.00  0.00    +0.041 A 
ATOM     24 CL   LIG    1      170.921 140.964 152.322  0.00  0.00    -0.084 Cl
ATOM     25  C   LIG    1      170.351 142.981 150.601  0.00  0.00    +0.024 A 
ATOM     26  C   LIG    1      170.006 143.495 149.355  0.00  0.00    +0.050 A 
ENDBRANCH   2  20
BRANCH   1  27
ATOM     27  O   LIG    1      167.753 141.856 146.224  0.00  0.00    -0.347 OA
ATOM     28  H   LIG    1      168.567 141.335 146.179  0.00  0.00    +0.215 HD
ENDBRANCH   1  27
TORSDOF 3
