REMARK VINA RESULT:      -7.5      2.701      7.163
REMARK  Name = ZINC000000623204
REMARK                            x       y       z     vdW  Elec       q    Type
REMARK                         _______ _______ _______ _____ _____    ______ ____
ROOT
ATOM      1  C   LIG    1      169.508 150.066 146.739  0.00  0.00    +0.124 A 
ATOM      2  C   LIG    1      170.309 150.885 147.550  0.00  0.00    +0.067 A 
ATOM      3 CL   LIG    1      169.765 152.421 148.149  0.00  0.00    -0.082 Cl
ATOM      4  C   LIG    1      171.606 150.488 147.888  0.00  0.00    +0.023 A 
ATOM      5  C   LIG    1      172.118 149.287 147.418  0.00  0.00    +0.014 A 
ATOM      6  C   LIG    1      171.339 148.451 146.602  0.00  0.00    +0.039 A 
ATOM      7  C   LIG    1      170.039 148.862 146.273  0.00  0.00    +0.043 A 
ENDROOT
BRANCH   6   8
ATOM      8  C   LIG    1      171.852 147.182 146.088  0.00  0.00    +0.245 C 
ATOM      9  N   LIG    1      171.149 146.512 145.130  0.00  0.00    -0.305 N 
ATOM     10  H   LIG    1      170.269 146.900 144.777  0.00  0.00    +0.150 HD
ATOM     11  O   LIG    1      172.905 146.684 146.466  0.00  0.00    -0.270 OA
BRANCH   9  12
ATOM     12  C   LIG    1      171.540 145.217 144.612  0.00  0.00    +0.100 C 
ATOM     13  C   LIG    1      171.633 145.336 143.085  0.00  0.00    +0.033 C 
BRANCH  12  14
ATOM     14  C   LIG    1      170.417 144.256 144.980  0.00  0.00    -0.027 A 
ATOM     15  C   LIG    1      170.275 143.743 146.274  0.00  0.00    +0.005 A 
ATOM     16  C   LIG    1      169.242 142.857 146.572  0.00  0.00    +0.000 A 
ATOM     17  C   LIG    1      168.344 142.476 145.583  0.00  0.00    +0.000 A 
ATOM     18  C   LIG    1      168.479 142.980 144.294  0.00  0.00    +0.000 A 
ATOM     19  C   LIG    1      169.510 143.865 143.995  0.00  0.00    +0.005 A 
ENDBRANCH  12  14
ENDBRANCH   9  12
ENDBRANCH   6   8
BRANCH   1  20
ATOM     20  S   LIG    1      167.826 150.535 146.304  0.00  0.00    +0.062 S 
ATOM     21  O   LIG    1      167.835 151.890 145.873  0.00  0.00    -0.153 OA
ATOM     22  O   LIG    1      167.311 149.594 145.371  0.00  0.00    -0.153 OA
BRANCH  20  23
ATOM     23  N   LIG    1      166.961 150.430 147.722  0.00  0.00    -0.177 NA
BRANCH  23  25
ATOM     24  C   LIG    1      167.550 150.247 150.087  0.00  0.00    +0.022 C 
ATOM     25  C   LIG    1      167.320 149.472 148.781  0.00  0.00    +0.106 C 
ENDBRANCH  23  25
BRANCH  23  26
ATOM     26  C   LIG    1      166.295 151.637 148.216  0.00  0.00    +0.106 C 
ATOM     27  C   LIG    1      164.859 151.525 147.699  0.00  0.00    +0.022 C 
ENDBRANCH  23  26
ENDBRANCH  20  23
ENDBRANCH   1  20
TORSDOF 7
