REMARK VINA RESULT:      -8.1     46.848     49.114
REMARK  Name = ZINC000049410085
REMARK                            x       y       z     vdW  Elec       q    Type
REMARK                         _______ _______ _______ _____ _____    ______ ____
ROOT
ATOM      1  C   LIG    1      205.198 115.727 145.778  0.00  0.00    +0.247 C 
ATOM      2  N   LIG    1      203.881 115.418 145.450  0.00  0.00    -0.297 N 
ATOM      3  C   LIG    1      203.532 114.188 144.720  0.00  0.00    +0.112 C 
ATOM      4  C   LIG    1      203.441 114.616 143.245  0.00  0.00    +0.064 C 
ATOM      5  C   LIG    1      202.392 115.735 143.106  0.00  0.00    +0.102 C 
ATOM      6  N   LIG    1      202.401 116.193 141.746  0.00  0.00    -0.290 N 
ATOM      7  H   LIG    1      203.190 116.766 141.436  0.00  0.00    +0.151 HD
ATOM      8  C   LIG    1      201.706 115.574 140.765  0.00  0.00    +0.247 C 
ATOM      9  O   LIG    1      202.058 115.848 139.626  0.00  0.00    -0.270 OA
ATOM     10  C   LIG    1      200.644 114.655 141.120  0.00  0.00    +0.058 A 
ATOM     11  C   LIG    1      199.914 113.918 140.176  0.00  0.00    +0.016 A 
ATOM     12  C   LIG    1      198.906 113.054 140.585  0.00  0.00    +0.021 A 
ATOM     13  C   LIG    1      198.612 112.919 141.949  0.00  0.00    +0.043 A 
ATOM     14 CL   LIG    1      197.352 111.839 142.451  0.00  0.00    -0.083 Cl
ATOM     15  C   LIG    1      199.323 113.645 142.902  0.00  0.00    +0.043 A 
ATOM     16  C   LIG    1      200.338 114.502 142.481  0.00  0.00    +0.042 A 
ATOM     17  N   LIG    1      201.061 115.235 143.422  0.00  0.00    -0.323 N 
ATOM     18  H   LIG    1      200.952 114.943 144.399  0.00  0.00    +0.148 HD
ATOM     19  C   LIG    1      202.722 116.938 144.002  0.00  0.00    +0.064 C 
ATOM     20  C   LIG    1      202.842 116.465 145.460  0.00  0.00    +0.112 C 
ATOM     21  O   LIG    1      205.485 116.913 145.906  0.00  0.00    -0.270 OA
ENDROOT
BRANCH   1  25
ATOM     22  C   LIG    1      207.520 112.375 148.676  0.00  0.00    +0.044 C 
ATOM     23  C   LIG    1      207.340 113.053 147.335  0.00  0.00    -0.049 A 
ATOM     24  C   LIG    1      206.375 114.042 147.170  0.00  0.00    +0.016 A 
ATOM     25  C   LIG    1      206.198 114.669 145.932  0.00  0.00    +0.037 A 
ATOM     26  C   LIG    1      206.988 114.263 144.847  0.00  0.00    +0.016 A 
ATOM     27  C   LIG    1      207.955 113.275 145.002  0.00  0.00    -0.049 A 
ATOM     28  C   LIG    1      208.802 112.837 143.827  0.00  0.00    +0.044 C 
ATOM     29  C   LIG    1      208.124 112.672 146.248  0.00  0.00    +0.006 A 
ENDBRANCH   1  25
TORSDOF 1
