REMARK VINA RESULT:      -6.6     56.153     58.688
REMARK  Name = ZINC000006087320
REMARK                            x       y       z     vdW  Elec       q    Type
REMARK                         _______ _______ _______ _____ _____    ______ ____
ROOT
ATOM      1  C   LIG    1      198.558 117.199 143.412  0.00  0.00    +0.222 C 
ENDROOT
BRANCH   1   2
ATOM      2  N   LIG    1      198.113 117.719 144.728  0.00  0.00    -0.290 N 
ATOM      3  C   LIG    1      197.008 118.546 144.822  0.00  0.00    +0.262 A 
ATOM      4  O   LIG    1      196.427 118.839 143.773  0.00  0.00    -0.267 OA
ATOM      5  C   LIG    1      196.622 119.023 146.132  0.00  0.00    +0.068 A 
ATOM      6  C   LIG    1      195.498 119.842 146.321  0.00  0.00    +0.035 A 
ATOM      7  C   LIG    1      195.166 120.280 147.598  0.00  0.00    +0.043 A 
ATOM      8 CL   LIG    1      193.781 121.291 147.828  0.00  0.00    -0.083 Cl
ATOM      9  C   LIG    1      195.945 119.911 148.698  0.00  0.00    +0.042 A 
ATOM     10  C   LIG    1      197.058 119.100 148.515  0.00  0.00    +0.068 A 
ATOM     11 CL   LIG    1      198.003 118.662 149.905  0.00  0.00    -0.081 Cl
ATOM     12  C   LIG    1      197.412 118.646 147.225  0.00  0.00    +0.096 A 
ATOM     13  N   LIG    1      198.540 117.830 147.015  0.00  0.00    -0.235 NA
ATOM     14  C   LIG    1      198.861 117.410 145.851  0.00  0.00    +0.203 A 
ENDBRANCH   1   2
BRANCH   1  17
ATOM     15  N   LIG    1      200.928 116.547 143.242  0.00  0.00    -0.284 N 
ATOM     16  H   LIG    1      200.509 115.606 143.353  0.00  0.00    +0.155 HD
ATOM     17  C   LIG    1      200.019 117.577 143.238  0.00  0.00    +0.237 C 
ATOM     18  O   LIG    1      200.357 118.731 143.084  0.00  0.00    -0.274 OA
BRANCH  15  20
ATOM     19  C   LIG    1      203.082 116.481 144.344  0.00  0.00    -0.026 A 
ATOM     20  C   LIG    1      202.344 116.582 143.150  0.00  0.00    +0.037 A 
ATOM     21  C   LIG    1      202.995 116.685 141.917  0.00  0.00    +0.023 A 
ATOM     22  C   LIG    1      204.384 116.716 141.870  0.00  0.00    +0.002 A 
ATOM     23  C   LIG    1      205.123 116.634 143.047  0.00  0.00    +0.000 A 
ATOM     24  C   LIG    1      204.474 116.517 144.273  0.00  0.00    +0.005 A 
BRANCH  19  26
ATOM     25  C   LIG    1      202.586 114.882 146.137  0.00  0.00    +0.009 C 
ATOM     26  C   LIG    1      202.425 116.348 145.713  0.00  0.00    +0.033 C 
ENDBRANCH  19  26
ENDBRANCH  15  20
ENDBRANCH   1  17
TORSDOF 4
