REMARK VINA RESULT:      -6.5     41.380     46.914
REMARK  Name = 
REMARK                            x       y       z     vdW  Elec       q    Type
REMARK                         _______ _______ _______ _____ _____    ______ ____
ROOT
ATOM      1  C   LIG    1      200.338 115.721 146.546  0.00  0.00    +0.155 A 
ATOM      2  C   LIG    1      199.530 116.178 145.517  0.00  0.00    +0.054 A 
ATOM      3  C   LIG    1      198.834 117.365 145.620  0.00  0.00    +0.089 A 
ATOM      4  C   LIG    1      198.017 117.834 144.586  0.00  0.00    +0.059 A 
ATOM      5  C   LIG    1      197.896 117.096 143.429  0.00  0.00    +0.174 A 
ATOM      6  C   LIG    1      198.600 115.914 143.351  0.00  0.00    +0.173 A 
ATOM      7  N   LIG    1      198.953 118.085 146.749  0.00  0.00    -0.224 NA
ATOM      8  C   LIG    1      199.735 117.648 147.750  0.00  0.00    +0.200 A 
ATOM      9  C   LIG    1      199.400 115.447 144.353  0.00  0.00    +0.044 A 
ATOM     10  N   LIG    1      200.409 116.489 147.640  0.00  0.00    -0.207 NA
ENDROOT
BRANCH   1  11
ATOM     11  N   LIG    1      201.015 114.498 146.364  0.00  0.00    -0.194 NA
BRANCH  11  14
ATOM     12  C   LIG    1      204.461 113.242 146.991  0.00  0.00    +0.044 A 
ATOM     13  C   LIG    1      203.088 113.378 146.972  0.00  0.00    +0.025 A 
ATOM     14  C   LIG    1      202.441 114.420 146.344  0.00  0.00    +0.073 A 
ATOM     15  C   LIG    1      203.178 115.389 145.696  0.00  0.00    +0.017 A 
ATOM     16  C   LIG    1      204.552 115.277 145.700  0.00  0.00    +0.002 A 
ATOM     17  C   LIG    1      205.179 114.231 146.332  0.00  0.00    +0.008 A 
BRANCH  12  19
ATOM     18  C   LIG    1      205.691 111.217 148.200  0.00  0.00    -0.009 C 
ATOM     19  C   LIG    1      205.123 112.142 147.655  0.00  0.00    -0.051 C 
ENDBRANCH  12  19
ENDBRANCH  11  14
ENDBRANCH   1  11
BRANCH   6  20
ATOM     20  O   LIG    1      198.463 115.184 142.173  0.00  0.00    -0.470 OA
BRANCH  20  21
ATOM     21  C   LIG    1      199.445 114.336 141.651  0.00  0.00    +0.237 C 
BRANCH  21  22
ATOM     22  C   LIG    1      198.945 112.911 141.555  0.00  0.00    +0.189 C 
BRANCH  22  23
ATOM     23  O   LIG    1      197.638 112.913 141.030  0.00  0.00    -0.347 OA
ATOM     24  C   LIG    1      196.804 112.048 141.721  0.00  0.00    +0.174 C 
ENDBRANCH  22  23
ENDBRANCH  21  22
ENDBRANCH  20  21
ENDBRANCH   6  20
BRANCH   5  25
ATOM     25  O   LIG    1      197.084 117.529 142.362  0.00  0.00    -0.470 OA
BRANCH  25  26
ATOM     26  C   LIG    1      196.476 118.806 142.407  0.00  0.00    +0.237 C 
BRANCH  26  27
ATOM     27  C   LIG    1      195.986 119.112 141.001  0.00  0.00    +0.189 C 
BRANCH  27  28
ATOM     28  O   LIG    1      194.896 118.344 140.651  0.00  0.00    -0.347 OA
ATOM     29  C   LIG    1      193.732 118.850 141.220  0.00  0.00    +0.174 C 
ENDBRANCH  27  28
ENDBRANCH  26  27
ENDBRANCH  25  26
ENDBRANCH   5  25
TORSDOF 11
