REMARK VINA RESULT:      -6.8      3.089      8.264
REMARK  Name = ZINC000000623420
REMARK                            x       y       z     vdW  Elec       q    Type
REMARK                         _______ _______ _______ _____ _____    ______ ____
ROOT
ATOM      1  C   LIG    1      169.284 147.455 146.686  0.00  0.00    +0.102 A 
ATOM      2  C   LIG    1      169.594 148.565 145.913  0.00  0.00    -0.014 A 
ATOM      3  C   LIG    1      170.492 148.503 144.683  0.00  0.00    +0.046 C 
ATOM      4  C   LIG    1      168.993 149.769 146.379  0.00  0.00    +0.091 A 
ATOM      5  C   LIG    1      168.193 149.524 147.492  0.00  0.00    +0.087 A 
ATOM      6  S   LIG    1      168.185 147.873 147.969  0.00  0.00    -0.066 S 
ENDROOT
BRANCH   5   7
ATOM      7  N   LIG    1      167.427 150.492 148.172  0.00  0.00    -0.275 N 
ATOM      8  H   LIG    1      166.580 150.817 147.681  0.00  0.00    +0.156 HD
ATOM      9  C   LIG    1      167.653 151.104 149.392  0.00  0.00    +0.249 C 
ATOM     10  O   LIG    1      168.671 150.857 150.019  0.00  0.00    -0.270 OA
BRANCH   9  11
ATOM     11  C   LIG    1      166.627 152.051 149.838  0.00  0.00    +0.040 A 
ATOM     12  C   LIG    1      166.861 153.440 149.868  0.00  0.00    -0.038 A 
ATOM     13  C   LIG    1      168.190 154.028 149.422  0.00  0.00    +0.044 C 
ATOM     14  C   LIG    1      165.858 154.300 150.313  0.00  0.00    +0.004 A 
ATOM     15  C   LIG    1      164.629 153.798 150.731  0.00  0.00    +0.000 A 
ATOM     16  C   LIG    1      164.389 152.430 150.701  0.00  0.00    +0.001 A 
ATOM     17  C   LIG    1      165.379 151.562 150.256  0.00  0.00    +0.013 A 
ENDBRANCH   9  11
ENDBRANCH   5   7
BRANCH   1  18
ATOM     18  C   LIG    1      169.743 146.079 146.582  0.00  0.00    +0.346 C 
ATOM     19  O   LIG    1      169.280 145.227 145.830  0.00  0.00    -0.244 OA
BRANCH  18  20
ATOM     20  O   LIG    1      170.776 145.697 147.374  0.00  0.00    -0.461 OA
BRANCH  20  22
ATOM     21  C   LIG    1      172.866 146.242 146.441  0.00  0.00    +0.048 C 
ATOM     22  C   LIG    1      171.965 145.075 146.840  0.00  0.00    +0.229 C 
ENDBRANCH  20  22
ENDBRANCH  18  20
ENDBRANCH   1  18
BRANCH   4  23
ATOM     23  C   LIG    1      169.187 151.094 145.803  0.00  0.00    +0.342 C 
ATOM     24  O   LIG    1      168.869 151.427 144.667  0.00  0.00    -0.245 OA
BRANCH  23  25
ATOM     25  O   LIG    1      169.772 152.069 146.566  0.00  0.00    -0.461 OA
BRANCH  25  26
ATOM     26  C   LIG    1      170.900 151.837 147.455  0.00  0.00    +0.229 C 
ATOM     27  C   LIG    1      172.047 151.401 146.544  0.00  0.00    +0.048 C 
ENDBRANCH  25  26
ENDBRANCH  23  25
ENDBRANCH   4  23
TORSDOF 8
