REMARK VINA RESULT:      -7.8      0.000      0.000
REMARK  Name = 
REMARK                            x       y       z     vdW  Elec       q    Type
REMARK                         _______ _______ _______ _____ _____    ______ ____
ROOT
ATOM      1  C   LIG    1      201.865  84.002 147.735  0.00  0.00    +0.032 C 
ATOM      2  C   LIG    1      202.450  84.977 148.705  0.00  0.00    -0.006 A 
ATOM      3  C   LIG    1      202.104  84.931 150.062  0.00  0.00    +0.071 A 
ATOM      4  C   LIG    1      202.636  85.826 150.973  0.00  0.00    +0.033 A 
ATOM      5  C   LIG    1      203.521  86.776 150.530  0.00  0.00    +0.075 A 
ATOM      6  C   LIG    1      203.873  86.830 149.177  0.00  0.00    +0.016 A 
ATOM      7  C   LIG    1      203.333  85.931 148.284  0.00  0.00    -0.002 A 
ENDROOT
BRANCH   5   8
ATOM      8  N   LIG    1      204.086  87.707 151.421  0.00  0.00    -0.175 NA
ATOM      9  C   LIG    1      203.680  89.047 151.571  0.00  0.00    +0.269 C 
ATOM     10  O   LIG    1      202.747  89.488 150.877  0.00  0.00    -0.268 OA
BRANCH   9  11
ATOM     11  C   LIG    1      204.362  89.911 152.543  0.00  0.00    +0.055 A 
ATOM     12  C   LIG    1      204.172  91.275 152.548  0.00  0.00    +0.004 A 
ATOM     13  C   LIG    1      204.819  92.101 153.473  0.00  0.00    -0.003 A 
ATOM     14  C   LIG    1      205.671  91.569 154.409  0.00  0.00    -0.006 A 
ATOM     15  C   LIG    1      205.866  90.209 154.410  0.00  0.00    -0.003 A 
ATOM     16  C   LIG    1      205.219  89.382 153.485  0.00  0.00    +0.004 A 
BRANCH  14  17
ATOM     17  C   LIG    1      206.351  92.443 155.381  0.00  0.00    +0.099 C 
BRANCH  17  18
ATOM     18  N   LIG    1      206.395  91.925 156.711  0.00  0.00    -0.267 NA
ATOM     19  C   LIG    1      207.681  92.084 157.360  0.00  0.00    +0.090 C 
ATOM     20  C   LIG    1      208.021  93.548 157.549  0.00  0.00    +0.090 C 
ATOM     21  N   LIG    1      206.819  94.320 157.845  0.00  0.00    -0.269 NA
ATOM     22  C   LIG    1      207.096  95.400 158.744  0.00  0.00    +0.090 C 
ATOM     23  C   LIG    1      205.811  93.462 158.475  0.00  0.00    +0.090 C 
ATOM     24  C   LIG    1      205.305  92.493 157.455  0.00  0.00    +0.090 C 
ENDBRANCH  17  18
ENDBRANCH  14  17
ENDBRANCH   9  11
ENDBRANCH   5   8
BRANCH   3  25
ATOM     25  N   LIG    1      201.201  83.938 150.429  0.00  0.00    -0.178 NA
BRANCH  25  26
ATOM     26  C   LIG    1      201.332  82.889 151.340  0.00  0.00    +0.241 A 
ATOM     27  N   LIG    1      202.252  81.930 151.054  0.00  0.00    -0.212 NA
ATOM     28  C   LIG    1      202.507  80.867 151.806  0.00  0.00    +0.087 A 
ATOM     29  C   LIG    1      201.775  80.714 152.988  0.00  0.00    +0.040 A 
ATOM     30  C   LIG    1      200.840  81.682 153.284  0.00  0.00    +0.103 A 
ATOM     31  N   LIG    1      200.649  82.727 152.462  0.00  0.00    -0.211 NA
BRANCH  28  32
ATOM     32  C   LIG    1      203.504  79.860 151.463  0.00  0.00    +0.037 A 
ATOM     33  C   LIG    1      203.697  79.511 150.145  0.00  0.00    +0.100 A 
ATOM     34  N   LIG    1      204.628  78.569 149.808  0.00  0.00    -0.242 NA
ATOM     35  C   LIG    1      205.370  77.965 150.725  0.00  0.00    +0.099 A 
ATOM     36  C   LIG    1      205.224  78.273 152.064  0.00  0.00    +0.021 A 
ATOM     37  C   LIG    1      204.274  79.235 152.415  0.00  0.00    +0.005 A 
ENDBRANCH  28  32
ENDBRANCH  25  26
ENDBRANCH   3  25
TORSDOF 7
