REMARK VINA RESULT:      -7.8      2.585      9.568
REMARK  Name = 
REMARK                            x       y       z     vdW  Elec       q    Type
REMARK                         _______ _______ _______ _____ _____    ______ ____
ROOT
ATOM      1  C   LIG    1      176.511 147.149 159.129  0.00  0.00    +0.072 C 
ATOM      2  C   LIG    1      175.904 145.964 158.255  0.00  0.00    +0.070 C 
ATOM      3  N   LIG    1      175.110 146.861 157.271  0.00  0.00    -0.269 NA
ATOM      4  C   LIG    1      173.795 146.930 157.584  0.00  0.00    +0.073 C 
ATOM      5  C   LIG    1      173.691 146.676 159.096  0.00  0.00    +0.024 C 
ATOM      6  C   LIG    1      175.690 148.124 157.083  0.00  0.00    +0.099 C 
ATOM      7  C   LIG    1      175.311 148.910 158.328  0.00  0.00    -0.013 C 
ATOM      8  C   LIG    1      174.563 145.614 159.105  0.00  0.00    +0.055 C 
ATOM      9  C   LIG    1      174.967 144.935 160.472  0.00  0.00    +0.127 C 
ATOM     10  C   LIG    1      175.822 146.083 161.156  0.00  0.00    +0.268 C 
ATOM     11  O   LIG    1      175.088 147.193 161.319  0.00  0.00    -0.209 OA
ATOM     12  N   LIG    1      175.939 143.980 159.876  0.00  0.00    -0.250 N 
ATOM     13  C   LIG    1      177.216 143.707 160.192  0.00  0.00    +0.307 C 
ATOM     14  O   LIG    1      177.961 142.871 159.649  0.00  0.00    -0.265 OA
ATOM     15  C   LIG    1      175.094 143.407 158.856  0.00  0.00    +0.053 A 
ATOM     16  C   LIG    1      175.115 142.109 158.409  0.00  0.00    +0.051 A 
ATOM     17  C   LIG    1      174.182 141.755 157.429  0.00  0.00    +0.137 A 
ATOM     18  C   LIG    1      173.288 142.654 156.932  0.00  0.00    +0.026 A 
ATOM     19  C   LIG    1      173.325 143.945 157.429  0.00  0.00    -0.003 A 
ATOM     20  C   LIG    1      174.220 144.360 158.395  0.00  0.00    -0.006 A 
ATOM     21  C   LIG    1      177.187 146.312 160.372  0.00  0.00    +0.213 C 
ATOM     22  C   LIG    1      175.818 148.274 159.379  0.00  0.00    -0.025 C 
ENDROOT
BRANCH  18  23
ATOM     23  C   LIG    1      172.361 142.212 155.864  0.00  0.00    +0.146 C 
ATOM     24  C   LIG    1      173.054 141.973 154.570  0.00  0.00    +0.068 A 
ATOM     25  C   LIG    1      172.428 141.525 153.448  0.00  0.00    -0.005 A 
ATOM     26  C   LIG    1      173.411 141.429 152.441  0.00  0.00    +0.015 A 
ATOM     27  C   LIG    1      174.617 141.825 152.990  0.00  0.00    +0.081 A 
ATOM     28  C   LIG    1      175.752 141.815 152.184  0.00  0.00    +0.019 A 
ATOM     29  C   LIG    1      175.714 141.426 150.862  0.00  0.00    +0.002 A 
ATOM     30  C   LIG    1      174.522 141.035 150.315  0.00  0.00    +0.000 A 
ATOM     31  C   LIG    1      173.408 141.046 151.116  0.00  0.00    +0.001 A 
ATOM     32  C   LIG    1      171.022 141.184 153.233  0.00  0.00    +0.045 C 
ATOM     33  C   LIG    1      170.255 141.945 152.240  0.00  0.00    +0.077 C 
ATOM     34  N   LIG    1      169.710 143.199 152.645  0.00  0.00    -0.270 NA
ATOM     35  C   LIG    1      168.398 143.149 153.257  0.00  0.00    +0.103 C 
ATOM     36  C   LIG    1      168.166 144.205 154.298  0.00  0.00    +0.141 C 
ATOM     37  C   LIG    1      169.169 144.151 155.460  0.00  0.00    +0.033 C 
ATOM     38  C   LIG    1      170.122 142.955 154.937  0.00  0.00    +0.020 C 
ATOM     39  O   LIG    1      166.902 143.918 154.866  0.00  0.00    -0.224 OA
ATOM     40  C   LIG    1      170.577 143.809 153.597  0.00  0.00    +0.072 C 
ATOM     41  N   LIG    1      174.368 142.139 154.249  0.00  0.00    -0.249 NA
ATOM     42  C   LIG    1      171.435 143.391 155.734  0.00  0.00    +0.022 C 
BRANCH  36  43
ATOM     43  C   LIG    1      168.145 145.592 153.756  0.00  0.00    +0.032 C 
ATOM     44  C   LIG    1      168.534 146.567 154.837  0.00  0.00    +0.003 C 
ENDBRANCH  36  43
BRANCH  23  45
ATOM     45  C   LIG    1      171.769 140.941 156.259  0.00  0.00    +0.325 C 
ATOM     46  O   LIG    1      170.886 141.010 157.202  0.00  0.00    -0.249 OA
BRANCH  45  47
ATOM     47  O   LIG    1      171.976 139.671 155.816  0.00  0.00    -0.444 OA
ATOM     48  C   LIG    1      171.026 138.633 155.963  0.00  0.00    +0.256 C 
ENDBRANCH  45  47
ENDBRANCH  23  45
ENDBRANCH  18  23
BRANCH   1  50
ATOM     49  C   LIG    1      178.441 146.588 158.082  0.00  0.00    +0.001 C 
ATOM     50  C   LIG    1      177.799 147.446 158.319  0.00  0.00    +0.009 C 
ENDBRANCH   1  50
BRANCH  10  51
ATOM     51  C   LIG    1      176.013 145.548 162.515  0.00  0.00    +0.350 C 
ATOM     52  O   LIG    1      176.708 144.560 162.847  0.00  0.00    -0.247 OA
BRANCH  51  53
ATOM     53  O   LIG    1      175.384 146.147 163.621  0.00  0.00    -0.443 OA
ATOM     54  C   LIG    1      174.791 145.412 164.656  0.00  0.00    +0.256 C 
ENDBRANCH  51  53
ENDBRANCH  10  51
BRANCH  17  55
ATOM     55  O   LIG    1      174.237 140.403 157.004  0.00  0.00    -0.472 OA
ATOM     56  C   LIG    1      175.111 139.474 157.592  0.00  0.00    +0.252 C 
ENDBRANCH  17  55
BRANCH  21  57
ATOM     57  O   LIG    1      177.587 147.593 161.081  0.00  0.00    -0.449 OA
BRANCH  57  58
ATOM     58  C   LIG    1      178.807 147.541 161.680  0.00  0.00    +0.318 C 
ATOM     59  O   LIG    1      179.421 148.373 162.355  0.00  0.00    -0.250 OA
ATOM     60  C   LIG    1      179.577 146.241 161.506  0.00  0.00    +0.121 C 
ENDBRANCH  57  58
ENDBRANCH  21  57
TORSDOF 10
