REMARK VINA RESULT:      -7.1     42.786     46.071
REMARK  Name = ZINC000000622958
REMARK                            x       y       z     vdW  Elec       q    Type
REMARK                         _______ _______ _______ _____ _____    ______ ____
ROOT
ATOM      1  C   LIG    1      158.884 187.956 158.218  0.00  0.00    +0.271 C 
ATOM      2  N   LIG    1      159.229 188.919 159.233  0.00  0.00    -0.157 N 
ATOM      3  C   LIG    1      158.301 189.837 159.392  0.00  0.00    +0.250 C 
ATOM      4  C   LIG    1      158.369 190.993 160.379  0.00  0.00    +0.124 C 
ATOM      5  C   LIG    1      157.344 190.710 161.502  0.00  0.00    +0.012 C 
ATOM      6  C   LIG    1      155.927 191.065 161.012  0.00  0.00    +0.004 C 
ATOM      7  C   LIG    1      155.340 190.158 159.911  0.00  0.00    +0.045 C 
ATOM      8  C   LIG    1      156.059 190.415 158.571  0.00  0.00    +0.236 C 
ATOM      9  N   LIG    1      157.286 189.605 158.600  0.00  0.00    -0.258 N 
ATOM     10  C   LIG    1      157.442 188.357 157.819  0.00  0.00    +0.323 C 
ENDROOT
BRANCH   1  11
ATOM     11  C   LIG    1      158.951 186.524 158.760  0.00  0.00    +0.034 A 
ATOM     12  C   LIG    1      159.849 185.608 158.185  0.00  0.00    +0.060 A 
ATOM     13  C   LIG    1      159.894 184.314 158.680  0.00  0.00    +0.167 A 
ATOM     14  O   LIG    1      160.684 183.309 158.248  0.00  0.00    -0.453 OA
ATOM     15  C   LIG    1      160.352 182.136 159.097  0.00  0.00    +0.466 C 
ATOM     16  O   LIG    1      159.305 182.618 160.029  0.00  0.00    -0.453 OA
ATOM     17  C   LIG    1      159.090 183.913 159.715  0.00  0.00    +0.166 A 
ATOM     18  C   LIG    1      158.195 184.788 160.309  0.00  0.00    +0.050 A 
ATOM     19  C   LIG    1      158.128 186.098 159.826  0.00  0.00    +0.014 A 
ENDBRANCH   1  11
BRANCH   2  20
ATOM     20  C   LIG    1      160.415 188.825 160.008  0.00  0.00    +0.124 A 
ATOM     21  C   LIG    1      161.619 189.296 159.484  0.00  0.00    +0.050 A 
ATOM     22  C   LIG    1      162.774 189.210 160.258  0.00  0.00    +0.024 A 
ATOM     23  C   LIG    1      162.715 188.660 161.542  0.00  0.00    +0.041 A 
ATOM     24 CL   LIG    1      164.151 188.558 162.501  0.00  0.00    -0.084 Cl
ATOM     25  C   LIG    1      161.501 188.191 162.056  0.00  0.00    +0.024 A 
ATOM     26  C   LIG    1      160.344 188.273 161.287  0.00  0.00    +0.050 A 
ENDBRANCH   2  20
BRANCH   1  27
ATOM     27  O   LIG    1      159.778 188.186 157.138  0.00  0.00    -0.347 OA
ATOM     28  H   LIG    1      159.424 187.734 156.358  0.00  0.00    +0.215 HD
ENDBRANCH   1  27
TORSDOF 3
