REMARK VINA RESULT:      -7.0     53.507     55.463
REMARK  Name = ZINC000009075134
REMARK                            x       y       z     vdW  Elec       q    Type
REMARK                         _______ _______ _______ _____ _____    ______ ____
ROOT
ATOM      1  C   LIG    1      165.141 102.897 174.679  0.00  0.00    +0.061 A 
ATOM      2  C   LIG    1      165.705 103.025 173.397  0.00  0.00    +0.039 A 
ATOM      3  C   LIG    1      165.078 103.798 172.430  0.00  0.00    +0.048 A 
ATOM      4  N   LIG    1      165.654 103.854 171.135  0.00  0.00    -0.284 N 
ATOM      5  H   LIG    1      166.308 103.121 170.828  0.00  0.00    +0.155 HD
ATOM      6  C   LIG    1      165.343 104.767 170.179  0.00  0.00    +0.227 C 
ATOM      7  C   LIG    1      164.512 105.994 170.503  0.00  0.00    +0.170 C 
ATOM      8  S   LIG    1      163.077 105.458 171.507  0.00  0.00    -0.114 S 
ATOM      9  O   LIG    1      165.802 104.559 169.077  0.00  0.00    -0.275 OA
ATOM     10  C   LIG    1      163.873 104.474 172.708  0.00  0.00    +0.030 A 
ATOM     11  C   LIG    1      163.304 104.336 173.977  0.00  0.00    +0.017 A 
ATOM     12  C   LIG    1      163.930 103.563 174.948  0.00  0.00    +0.016 A 
ENDROOT
BRANCH   1  14
ATOM     13  O   LIG    1      166.703 102.505 176.419  0.00  0.00    -0.245 OA
ATOM     14  C   LIG    1      165.807 102.090 175.696  0.00  0.00    +0.340 C 
BRANCH  14  15
ATOM     15  O   LIG    1      165.420 100.801 175.845  0.00  0.00    -0.456 OA
BRANCH  15  16
ATOM     16  C   LIG    1      164.240 100.419 176.602  0.00  0.00    +0.268 C 
BRANCH  16  17
ATOM     17  C   LIG    1      163.221 100.009 175.555  0.00  0.00    -0.010 A 
ATOM     18  C   LIG    1      163.588  99.157 174.512  0.00  0.00    +0.008 A 
ATOM     19  C   LIG    1      162.653  98.779 173.553  0.00  0.00    +0.015 A 
ATOM     20  C   LIG    1      161.344  99.247 173.629  0.00  0.00    +0.018 A 
ATOM     21 BR   LIG    1      160.074  98.733 172.324  0.00  0.00    -0.050 Br
ATOM     22  C   LIG    1      160.972 100.092 174.671  0.00  0.00    +0.015 A 
ATOM     23  C   LIG    1      161.907 100.470 175.632  0.00  0.00    +0.008 A 
ENDBRANCH  16  17
ENDBRANCH  15  16
ENDBRANCH  14  15
ENDBRANCH   1  14
TORSDOF 4
