REMARK VINA RESULT:      -7.8     36.250     39.884
REMARK  Name = 
REMARK                            x       y       z     vdW  Elec       q    Type
REMARK                         _______ _______ _______ _____ _____    ______ ____
ROOT
ATOM      1  C   LIG    1      195.188 123.046 140.264  0.00  0.00    +0.035 A 
ATOM      2  C   LIG    1      195.603 121.759 140.515  0.00  0.00    +0.007 A 
ATOM      3  C   LIG    1      194.708 120.699 140.392  0.00  0.00    +0.051 A 
ATOM      4  C   LIG    1      193.394 120.883 140.020  0.00  0.00    +0.086 A 
ATOM      5  N   LIG    1      192.515 119.861 139.897  0.00  0.00    -0.224 NA
ATOM      6  C   LIG    1      192.963 118.626 140.151  0.00  0.00    +0.200 A 
ATOM      7  N   LIG    1      194.247 118.417 140.517  0.00  0.00    -0.207 NA
ATOM      8  C   LIG    1      193.002 122.192 139.772  0.00  0.00    +0.019 A 
ATOM      9  C   LIG    1      195.133 119.396 140.648  0.00  0.00    +0.155 A 
ATOM     10  C   LIG    1      193.877 123.248 139.891  0.00  0.00    +0.005 A 
ENDROOT
BRANCH   1  13
ATOM     11  C   LIG    1      197.109 125.984 141.010  0.00  0.00    +0.140 A 
ATOM     12  O   LIG    1      196.079 125.196 141.136  0.00  0.00    -0.456 OA
ATOM     13  C   LIG    1      196.136 124.144 140.398  0.00  0.00    +0.145 A 
ATOM     14  C   LIG    1      197.332 124.215 139.688  0.00  0.00    +0.040 A 
ATOM     15  C   LIG    1      197.943 125.380 140.079  0.00  0.00    +0.038 A 
BRANCH  11  16
ATOM     16  C   LIG    1      197.385 127.286 141.705  0.00  0.00    +0.153 C 
BRANCH  16  17
ATOM     17  N   LIG    1      196.367 128.263 141.333  0.00  0.00    -0.208 NA
BRANCH  17  18
ATOM     18  C   LIG    1      196.689 128.763 140.015  0.00  0.00    +0.114 C 
BRANCH  18  19
ATOM     19  C   LIG    1      195.472 129.226 139.264  0.00  0.00    +0.170 C 
BRANCH  19  21
ATOM     20  C   LIG    1      193.780 126.887 139.229  0.00  0.00    +0.176 C 
ATOM     21  S   LIG    1      194.789 127.940 138.247  0.00  0.00    -0.007 S 
ATOM     22  O   LIG    1      195.943 127.117 137.729  0.00  0.00    -0.173 OA
ATOM     23  O   LIG    1      193.987 128.510 137.105  0.00  0.00    -0.173 OA
ENDBRANCH  19  21
ENDBRANCH  18  19
ENDBRANCH  17  18
ENDBRANCH  16  17
ENDBRANCH  11  16
ENDBRANCH   1  13
BRANCH   9  24
ATOM     24  N   LIG    1      196.475 119.226 141.027  0.00  0.00    -0.194 NA
BRANCH  24  25
ATOM     25  C   LIG    1      196.829 118.858 142.325  0.00  0.00    +0.073 A 
ATOM     26  C   LIG    1      196.271 119.463 143.455  0.00  0.00    +0.031 A 
ATOM     27  C   LIG    1      196.656 119.058 144.697  0.00  0.00    +0.093 A 
ATOM     28 CL   LIG    1      195.990 119.795 146.167  0.00  0.00    -0.079 Cl
ATOM     29  C   LIG    1      197.590 118.059 144.892  0.00  0.00    +0.150 A 
ATOM     30  C   LIG    1      198.147 117.455 143.786  0.00  0.00    +0.039 A 
ATOM     31  C   LIG    1      197.757 117.864 142.536  0.00  0.00    +0.020 A 
BRANCH  29  32
ATOM     32  O   LIG    1      197.960 117.670 146.192  0.00  0.00    -0.470 OA
BRANCH  32  33
ATOM     33  C   LIG    1      199.162 118.218 146.721  0.00  0.00    +0.232 C 
BRANCH  33  34
ATOM     34  C   LIG    1      200.239 117.238 146.456  0.00  0.00    +0.023 A 
ATOM     35  C   LIG    1      201.402 117.579 145.798  0.00  0.00    +0.029 A 
ATOM     36  C   LIG    1      202.382 116.605 145.582  0.00  0.00    +0.140 A 
ATOM     37  F   LIG    1      203.545 116.892 144.940  0.00  0.00    -0.204 F 
ATOM     38  C   LIG    1      202.193 115.316 146.018  0.00  0.00    +0.030 A 
ATOM     39  C   LIG    1      201.046 114.975 146.669  0.00  0.00    +0.002 A 
ATOM     40  C   LIG    1      200.078 115.941 146.882  0.00  0.00    -0.001 A 
ENDBRANCH  33  34
ENDBRANCH  32  33
ENDBRANCH  29  32
ENDBRANCH  24  25
ENDBRANCH   9  24
TORSDOF 11
