REMARK VINA RESULT:      -8.4      5.172      8.042
REMARK  Name = ZINC000049410085
REMARK                            x       y       z     vdW  Elec       q    Type
REMARK                         _______ _______ _______ _____ _____    ______ ____
ROOT
ATOM      1  C   LIG    1      166.823 145.065 145.875  0.00  0.00    +0.247 C 
ATOM      2  N   LIG    1      166.625 145.120 147.253  0.00  0.00    -0.297 N 
ATOM      3  C   LIG    1      167.753 145.188 148.196  0.00  0.00    +0.112 C 
ATOM      4  C   LIG    1      167.993 143.732 148.631  0.00  0.00    +0.064 C 
ATOM      5  C   LIG    1      166.701 143.169 149.252  0.00  0.00    +0.102 C 
ATOM      6  N   LIG    1      166.913 141.782 149.551  0.00  0.00    -0.290 N 
ATOM      7  H   LIG    1      166.937 141.120 148.771  0.00  0.00    +0.151 HD
ATOM      8  C   LIG    1      167.509 141.365 150.692  0.00  0.00    +0.247 C 
ATOM      9  O   LIG    1      167.926 140.216 150.670  0.00  0.00    -0.270 OA
ATOM     10  C   LIG    1      167.620 142.281 151.808  0.00  0.00    +0.058 A 
ATOM     11  C   LIG    1      168.279 141.962 153.005  0.00  0.00    +0.016 A 
ATOM     12  C   LIG    1      168.347 142.887 154.039  0.00  0.00    +0.021 A 
ATOM     13  C   LIG    1      167.751 144.147 153.889  0.00  0.00    +0.043 A 
ATOM     14 CL   LIG    1      167.840 145.297 155.184  0.00  0.00    -0.083 Cl
ATOM     15  C   LIG    1      167.089 144.482 152.710  0.00  0.00    +0.043 A 
ATOM     16  C   LIG    1      167.034 143.550 151.677  0.00  0.00    +0.042 A 
ATOM     17  N   LIG    1      166.377 143.869 150.489  0.00  0.00    -0.323 N 
ATOM     18  H   LIG    1      166.150 144.860 150.353  0.00  0.00    +0.148 HD
ATOM     19  C   LIG    1      165.517 143.257 148.279  0.00  0.00    +0.064 C 
ATOM     20  C   LIG    1      165.332 144.719 147.838  0.00  0.00    +0.112 C 
ATOM     21  O   LIG    1      165.956 144.519 145.201  0.00  0.00    -0.270 OA
ENDROOT
BRANCH   1  25
ATOM     22  C   LIG    1      171.050 144.371 143.291  0.00  0.00    +0.044 C 
ATOM     23  C   LIG    1      170.099 145.283 144.035  0.00  0.00    -0.049 A 
ATOM     24  C   LIG    1      168.927 144.776 144.589  0.00  0.00    +0.016 A 
ATOM     25  C   LIG    1      168.040 145.615 145.273  0.00  0.00    +0.037 A 
ATOM     26  C   LIG    1      168.333 146.982 145.367  0.00  0.00    +0.016 A 
ATOM     27  C   LIG    1      169.502 147.497 144.815  0.00  0.00    -0.049 A 
ATOM     28  C   LIG    1      169.812 148.975 144.914  0.00  0.00    +0.044 C 
ATOM     29  C   LIG    1      170.379 146.643 144.149  0.00  0.00    +0.006 A 
ENDBRANCH   1  25
TORSDOF 1
