MODEL 1
REMARK VINA RESULT:      -9.3      0.000      0.000
REMARK  Name = 
REMARK                            x       y       z     vdW  Elec       q    Type
REMARK                         _______ _______ _______ _____ _____    ______ ____
ROOT
ATOM      1  C   LIG    1      186.974  88.723 153.988  0.00  0.00    +0.243 C 
ATOM      2  C   LIG    1      186.615  90.010 154.869  0.00  0.00    +0.196 C 
ATOM      3  O   LIG    1      187.661  90.503 154.679  0.00  0.00    -0.292 OA
ATOM      4  C   LIG    1      185.732  90.711 155.655  0.00  0.00    +0.090 C 
ATOM      5  C   LIG    1      184.358  90.179 156.080  0.00  0.00    +0.093 C 
ATOM      6  C   LIG    1      183.700  91.508 156.659  0.00  0.00    +0.191 C 
ATOM      7  C   LIG    1      184.085  91.321 158.185  0.00  0.00    +0.157 C 
ATOM      8  C   LIG    1      185.699  91.704 157.934  0.00  0.00    +0.067 C 
ATOM      9  O   LIG    1      183.766  92.764 158.380  0.00  0.00    -0.349 OA
ATOM     10  C   LIG    1      184.352  92.715 157.090  0.00  0.00    +0.185 C 
ATOM     11  C   LIG    1      184.157  89.156 157.213  0.00  0.00    +0.201 C 
ATOM     12  C   LIG    1      184.841  87.763 156.897  0.00  0.00    +0.170 C 
ATOM     13  C   LIG    1      184.757  87.590 155.405  0.00  0.00    +0.048 C 
ATOM     14  C   LIG    1      184.579  86.064 155.026  0.00  0.00    +0.007 C 
ATOM     15  C   LIG    1      183.654  88.221 154.683  0.00  0.00    +0.007 C 
ATOM     16  O   LIG    1      183.973  86.720 157.191  0.00  0.00    -0.222 OA
ATOM     17  C   LIG    1      186.097  87.433 157.559  0.00  0.00    +0.082 C 
ATOM     18  C   LIG    1      186.340  86.129 156.543  0.00  0.00    +0.189 C 
ATOM     19  C   LIG    1      187.082  87.100 155.460  0.00  0.00    -0.009 C 
ATOM     20  C   LIG    1      188.464  87.142 155.210  0.00  0.00    +0.029 C 
ATOM     21  C   LIG    1      185.968  92.081 155.330  0.00  0.00    +0.010 C 
ATOM     22  C   LIG    1      186.241  90.398 157.180  0.00  0.00    +0.161 C 
ATOM     23  O   LIG    1      187.633  90.957 157.066  0.00  0.00    -0.223 OA
ATOM     24  C   LIG    1      186.093  87.796 154.970  0.00  0.00    -0.000 C 
ENDROOT
BRANCH   1  25
ATOM     25  O   LIG    1      185.857  88.903 152.958  0.00  0.00    -0.440 OA
BRANCH  25  27
ATOM     26  C   LIG    1      187.220  88.057 151.042  0.00  0.00    +0.121 C 
ATOM     27  C   LIG    1      186.036  88.027 151.900  0.00  0.00    +0.318 C 
ATOM     28  O   LIG    1      185.199  87.141 151.594  0.00  0.00    -0.250 OA
ENDBRANCH  25  27
ENDBRANCH   1  25
BRANCH   6  29
ATOM     29  O   LIG    1      182.591  91.884 156.132  0.00  0.00    -0.451 OA
BRANCH  29  30
ATOM     30  C   LIG    1      182.020  91.915 154.935  0.00  0.00    +0.317 C 
ATOM     31  O   LIG    1      182.180  92.882 154.164  0.00  0.00    -0.250 OA
ATOM     32  C   LIG    1      181.133  90.860 154.329  0.00  0.00    +0.121 C 
ENDBRANCH  29  30
ENDBRANCH   6  29
BRANCH  11  33
ATOM     33  O   LIG    1      182.810  88.858 157.221  0.00  0.00    -0.446 OA
BRANCH  33  34
ATOM     34  C   LIG    1      181.619  88.595 157.225  0.00  0.00    +0.341 C 
ATOM     35  O   LIG    1      181.195  89.462 158.031  0.00  0.00    -0.245 OA
BRANCH  34  36
ATOM     36  C   LIG    1      180.549  87.760 156.726  0.00  0.00    +0.076 A 
ATOM     37  C   LIG    1      180.796  86.853 155.667  0.00  0.00    +0.006 A 
ATOM     38  C   LIG    1      179.808  86.044 155.175  0.00  0.00    +0.000 A 
ATOM     39  C   LIG    1      178.531  86.067 155.677  0.00  0.00    +0.000 A 
ATOM     40  C   LIG    1      178.241  86.950 156.725  0.00  0.00    +0.000 A 
ATOM     41  C   LIG    1      179.279  87.735 157.173  0.00  0.00    +0.006 A 
ENDBRANCH  34  36
ENDBRANCH  33  34
ENDBRANCH  11  33
BRANCH  18  42
ATOM     42  O   LIG    1      187.608  85.564 157.153  0.00  0.00    -0.446 OA
BRANCH  42  43
ATOM     43  C   LIG    1      187.431  84.287 157.429  0.00  0.00    +0.350 C 
ATOM     44  O   LIG    1      186.347  83.848 157.866  0.00  0.00    -0.247 OA
BRANCH  43  45
ATOM     45  C   LIG    1      188.554  83.141 157.247  0.00  0.00    +0.273 C 
ATOM     46  O   LIG    1      187.820  82.052 157.958  0.00  0.00    -0.209 OA
BRANCH  45  47
ATOM     47  C   LIG    1      189.378  83.683 158.654  0.00  0.00    +0.159 C 
BRANCH  47  48
ATOM     48  C   LIG    1      190.378  84.674 157.991  0.00  0.00    +0.000 A 
ATOM     49  C   LIG    1      190.785  85.662 158.845  0.00  0.00    -0.003 A 
ATOM     50  C   LIG    1      191.670  86.644 158.454  0.00  0.00    -0.000 A 
ATOM     51  C   LIG    1      192.131  86.592 157.165  0.00  0.00    -0.000 A 
ATOM     52  C   LIG    1      191.734  85.612 156.302  0.00  0.00    -0.000 A 
ATOM     53  C   LIG    1      190.841  84.657 156.762  0.00  0.00    -0.003 A 
ENDBRANCH  47  48
BRANCH  47  54
ATOM     54  N   LIG    1      190.247  82.417 158.735  0.00  0.00    -0.196 NA
ATOM     55  C   LIG    1      190.847  81.959 159.845  0.00  0.00    +0.265 C 
ATOM     56  O   LIG    1      190.720  82.575 160.925  0.00  0.00    -0.268 OA
BRANCH  55  57
ATOM     57  C   LIG    1      191.649  80.745 159.805  0.00  0.00    +0.055 A 
ATOM     58  C   LIG    1      191.998  80.147 158.612  0.00  0.00    +0.005 A 
ATOM     59  C   LIG    1      192.755  79.004 158.647  0.00  0.00    +0.000 A 
ATOM     60  C   LIG    1      193.183  78.425 159.827  0.00  0.00    +0.000 A 
ATOM     61  C   LIG    1      192.825  79.037 161.014  0.00  0.00    +0.000 A 
ATOM     62  C   LIG    1      192.069  80.179 160.972  0.00  0.00    +0.005 A 
ENDBRANCH  55  57
ENDBRANCH  47  54
ENDBRANCH  45  47
ENDBRANCH  43  45
ENDBRANCH  42  43
ENDBRANCH  18  42
TORSDOF 14
ENDMDL
MODEL 2
REMARK VINA RESULT:      -9.2     31.468     36.596
REMARK  Name = 
REMARK                            x       y       z     vdW  Elec       q    Type
REMARK                         _______ _______ _______ _____ _____    ______ ____
ROOT
ATOM      1  C   LIG    1      198.799 113.920 142.783  0.00  0.00    +0.243 C 
ATOM      2  C   LIG    1      199.921 113.825 143.920  0.00  0.00    +0.196 C 
ATOM      3  O   LIG    1      199.137 113.580 144.755  0.00  0.00    -0.292 OA
ATOM      4  C   LIG    1      201.239 113.894 144.307  0.00  0.00    +0.090 C 
ATOM      5  C   LIG    1      202.385 114.291 143.368  0.00  0.00    +0.093 C 
ATOM      6  C   LIG    1      203.641 113.876 144.255  0.00  0.00    +0.191 C 
ATOM      7  C   LIG    1      203.916 115.274 144.949  0.00  0.00    +0.157 C 
ATOM      8  C   LIG    1      202.594 115.145 145.974  0.00  0.00    +0.067 C 
ATOM      9  O   LIG    1      204.762 114.548 145.939  0.00  0.00    -0.349 OA
ATOM     10  C   LIG    1      203.698 113.648 145.674  0.00  0.00    +0.185 C 
ATOM     11  C   LIG    1      202.691 115.746 142.971  0.00  0.00    +0.201 C 
ATOM     12  C   LIG    1      201.506 116.413 142.159  0.00  0.00    +0.170 C 
ATOM     13  C   LIG    1      200.871 115.302 141.368  0.00  0.00    +0.048 C 
ATOM     14  C   LIG    1      200.331 115.838 139.980  0.00  0.00    +0.007 C 
ATOM     15  C   LIG    1      201.695 114.164 140.963  0.00  0.00    +0.007 C 
ATOM     16  O   LIG    1      201.999 117.087 141.050  0.00  0.00    -0.222 OA
ATOM     17  C   LIG    1      200.633 117.358 142.843  0.00  0.00    +0.082 C 
ATOM     18  C   LIG    1      199.543 117.333 141.577  0.00  0.00    +0.189 C 
ATOM     19  C   LIG    1      198.789 116.045 142.240  0.00  0.00    -0.009 C 
ATOM     20  C   LIG    1      197.544 116.071 142.890  0.00  0.00    +0.029 C 
ATOM     21  C   LIG    1      201.372 112.894 145.316  0.00  0.00    +0.010 C 
ATOM     22  C   LIG    1      201.367 115.386 144.972  0.00  0.00    +0.161 C 
ATOM     23  O   LIG    1      200.350 115.227 146.068  0.00  0.00    -0.223 OA
ATOM     24  C   LIG    1      199.640 115.076 142.039  0.00  0.00    -0.000 C 
ENDROOT
BRANCH   1  25
ATOM     25  O   LIG    1      199.345 112.791 141.907  0.00  0.00    -0.440 OA
BRANCH  25  27
ATOM     26  C   LIG    1      197.012 111.899 141.962  0.00  0.00    +0.121 C 
ATOM     27  C   LIG    1      198.463 111.724 141.896  0.00  0.00    +0.318 C 
ATOM     28  O   LIG    1      198.835 110.525 141.828  0.00  0.00    -0.250 OA
ENDBRANCH  25  27
ENDBRANCH   1  25
BRANCH   6  29
ATOM     29  O   LIG    1      204.465 113.039 143.738  0.00  0.00    -0.451 OA
BRANCH  29  30
ATOM     30  C   LIG    1      205.681 112.566 143.976  0.00  0.00    +0.317 C 
ATOM     31  O   LIG    1      206.693 113.290 143.872  0.00  0.00    -0.250 OA
ATOM     32  C   LIG    1      206.041 111.163 144.388  0.00  0.00    +0.121 C 
ENDBRANCH  29  30
ENDBRANCH   6  29
BRANCH  11  33
ATOM     33  O   LIG    1      203.715 115.679 142.048  0.00  0.00    -0.446 OA
BRANCH  33  34
ATOM     34  C   LIG    1      204.619 115.618 141.232  0.00  0.00    +0.341 C 
ATOM     35  O   LIG    1      205.158 116.742 141.399  0.00  0.00    -0.245 OA
BRANCH  34  36
ATOM     36  C   LIG    1      205.297 114.846 140.213  0.00  0.00    +0.076 A 
ATOM     37  C   LIG    1      206.486 114.146 140.530  0.00  0.00    +0.006 A 
ATOM     38  C   LIG    1      207.148 113.403 139.592  0.00  0.00    +0.000 A 
ATOM     39  C   LIG    1      206.698 113.293 138.299  0.00  0.00    +0.000 A 
ATOM     40  C   LIG    1      205.526 113.969 137.941  0.00  0.00    +0.000 A 
ATOM     41  C   LIG    1      204.908 114.699 138.931  0.00  0.00    +0.006 A 
ENDBRANCH  34  36
ENDBRANCH  33  34
ENDBRANCH  11  33
BRANCH  18  42
ATOM     42  O   LIG    1      198.556 118.374 142.071  0.00  0.00    -0.446 OA
BRANCH  42  43
ATOM     43  C   LIG    1      197.926 118.905 141.043  0.00  0.00    +0.350 C 
ATOM     44  O   LIG    1      198.176 118.566 139.866  0.00  0.00    -0.247 OA
BRANCH  43  45
ATOM     45  C   LIG    1      196.776 120.033 141.149  0.00  0.00    +0.273 C 
ATOM     46  O   LIG    1      197.028 120.417 142.569  0.00  0.00    -0.209 OA
BRANCH  45  47
ATOM     47  C   LIG    1      195.602 118.841 141.543  0.00  0.00    +0.159 C 
BRANCH  47  48
ATOM     48  C   LIG    1      194.372 119.451 140.810  0.00  0.00    +0.000 A 
ATOM     49  C   LIG    1      193.546 118.495 140.284  0.00  0.00    -0.003 A 
ATOM     50  C   LIG    1      192.399 118.825 139.592  0.00  0.00    -0.000 A 
ATOM     51  C   LIG    1      192.115 120.158 139.453  0.00  0.00    -0.000 A 
ATOM     52  C   LIG    1      192.930 121.122 139.973  0.00  0.00    -0.000 A 
ATOM     53  C   LIG    1      194.067 120.718 140.656  0.00  0.00    -0.003 A 
ENDBRANCH  47  48
BRANCH  47  54
ATOM     54  N   LIG    1      195.390 119.397 142.961  0.00  0.00    -0.196 NA
ATOM     55  C   LIG    1      194.907 118.701 144.002  0.00  0.00    +0.265 C 
ATOM     56  O   LIG    1      194.589 117.501 143.859  0.00  0.00    -0.268 OA
BRANCH  55  57
ATOM     57  C   LIG    1      194.749 119.333 145.304  0.00  0.00    +0.055 A 
ATOM     58  C   LIG    1      193.504 119.557 145.854  0.00  0.00    +0.005 A 
ATOM     59  C   LIG    1      193.428 120.157 147.084  0.00  0.00    +0.000 A 
ATOM     60  C   LIG    1      194.545 120.548 147.797  0.00  0.00    +0.000 A 
ATOM     61  C   LIG    1      195.786 120.316 147.233  0.00  0.00    +0.000 A 
ATOM     62  C   LIG    1      195.856 119.715 146.003  0.00  0.00    +0.005 A 
ENDBRANCH  55  57
ENDBRANCH  47  54
ENDBRANCH  45  47
ENDBRANCH  43  45
ENDBRANCH  42  43
ENDBRANCH  18  42
TORSDOF 14
ENDMDL
MODEL 3
REMARK VINA RESULT:      -9.0     32.261     35.808
REMARK  Name = 
REMARK                            x       y       z     vdW  Elec       q    Type
REMARK                         _______ _______ _______ _____ _____    ______ ____
ROOT
ATOM      1  C   LIG    1      199.654 118.763 141.148  0.00  0.00    +0.243 C 
ATOM      2  C   LIG    1      198.658 117.517 141.287  0.00  0.00    +0.196 C 
ATOM      3  O   LIG    1      197.940 118.098 142.007  0.00  0.00    -0.292 OA
ATOM      4  C   LIG    1      198.313 116.224 140.974  0.00  0.00    +0.090 C 
ATOM      5  C   LIG    1      199.180 115.290 140.121  0.00  0.00    +0.093 C 
ATOM      6  C   LIG    1      198.146 114.113 139.840  0.00  0.00    +0.191 C 
ATOM      7  C   LIG    1      198.544 113.154 141.037  0.00  0.00    +0.157 C 
ATOM      8  C   LIG    1      197.806 114.119 142.195  0.00  0.00    +0.067 C 
ATOM      9  O   LIG    1      197.259 112.434 140.809  0.00  0.00    -0.349 OA
ATOM     10  C   LIG    1      196.939 113.792 140.555  0.00  0.00    +0.185 C 
ATOM     11  C   LIG    1      200.422 114.557 140.660  0.00  0.00    +0.201 C 
ATOM     12  C   LIG    1      201.563 115.556 141.115  0.00  0.00    +0.170 C 
ATOM     13  C   LIG    1      201.457 116.748 140.203  0.00  0.00    +0.048 C 
ATOM     14  C   LIG    1      202.885 117.370 139.924  0.00  0.00    +0.007 C 
ATOM     15  C   LIG    1      200.930 116.558 138.853  0.00  0.00    +0.007 C 
ATOM     16  O   LIG    1      202.794 115.138 140.629  0.00  0.00    -0.222 OA
ATOM     17  C   LIG    1      201.758 115.794 142.540  0.00  0.00    +0.082 C 
ATOM     18  C   LIG    1      202.766 117.090 142.229  0.00  0.00    +0.189 C 
ATOM     19  C   LIG    1      201.476 118.089 142.166  0.00  0.00    -0.009 C 
ATOM     20  C   LIG    1      201.112 119.021 143.152  0.00  0.00    +0.029 C 
ATOM     21  C   LIG    1      196.887 116.238 140.907  0.00  0.00    +0.010 C 
ATOM     22  C   LIG    1      198.807 115.367 142.279  0.00  0.00    +0.161 C 
ATOM     23  O   LIG    1      197.972 116.055 143.324  0.00  0.00    -0.223 OA
ATOM     24  C   LIG    1      200.909 117.759 141.038  0.00  0.00    -0.000 C 
ENDROOT
BRANCH   1  25
ATOM     25  O   LIG    1      199.503 118.935 139.635  0.00  0.00    -0.440 OA
BRANCH  25  27
ATOM     26  C   LIG    1      198.752 121.211 140.341  0.00  0.00    +0.121 C 
ATOM     27  C   LIG    1      199.192 120.249 139.331  0.00  0.00    +0.318 C 
ATOM     28  O   LIG    1      199.263 120.720 138.167  0.00  0.00    -0.250 OA
ENDBRANCH  25  27
ENDBRANCH   1  25
BRANCH   6  29
ATOM     29  O   LIG    1      197.904 113.834 138.610  0.00  0.00    -0.451 OA
BRANCH  29  30
ATOM     30  C   LIG    1      197.607 114.474 137.487  0.00  0.00    +0.317 C 
ATOM     31  O   LIG    1      196.425 114.626 137.118  0.00  0.00    -0.250 OA
ATOM     32  C   LIG    1      198.578 115.091 136.515  0.00  0.00    +0.121 C 
ENDBRANCH  29  30
ENDBRANCH   6  29
BRANCH  11  33
ATOM     33  O   LIG    1      200.978 113.907 139.577  0.00  0.00    -0.446 OA
BRANCH  33  34
ATOM     34  C   LIG    1      201.467 113.331 138.620  0.00  0.00    +0.341 C 
ATOM     35  O   LIG    1      200.764 112.289 138.593  0.00  0.00    -0.245 OA
BRANCH  34  36
ATOM     36  C   LIG    1      202.455 113.337 137.564  0.00  0.00    +0.076 A 
ATOM     37  C   LIG    1      203.815 113.086 137.865  0.00  0.00    +0.006 A 
ATOM     38  C   LIG    1      204.773 113.079 136.889  0.00  0.00    +0.000 A 
ATOM     39  C   LIG    1      204.471 113.313 135.570  0.00  0.00    +0.000 A 
ATOM     40  C   LIG    1      203.138 113.567 135.226  0.00  0.00    +0.000 A 
ATOM     41  C   LIG    1      202.224 113.560 136.255  0.00  0.00    +0.006 A 
ENDBRANCH  34  36
ENDBRANCH  33  34
ENDBRANCH  11  33
BRANCH  18  42
ATOM     42  O   LIG    1      203.175 117.440 143.647  0.00  0.00    -0.446 OA
BRANCH  42  43
ATOM     43  C   LIG    1      204.252 116.756 143.975  0.00  0.00    +0.350 C 
ATOM     44  O   LIG    1      205.118 116.439 143.131  0.00  0.00    -0.247 OA
BRANCH  43  45
ATOM     45  C   LIG    1      204.603 116.248 145.467  0.00  0.00    +0.273 C 
ATOM     46  O   LIG    1      206.088 116.244 145.314  0.00  0.00    -0.209 OA
BRANCH  45  47
ATOM     47  C   LIG    1      204.419 114.609 144.983  0.00  0.00    +0.159 C 
BRANCH  47  48
ATOM     48  C   LIG    1      202.963 114.365 145.480  0.00  0.00    +0.000 A 
ATOM     49  C   LIG    1      202.453 113.172 145.046  0.00  0.00    -0.003 A 
ATOM     50  C   LIG    1      201.176 112.765 145.373  0.00  0.00    -0.000 A 
ATOM     51  C   LIG    1      200.433 113.609 146.157  0.00  0.00    -0.000 A 
ATOM     52  C   LIG    1      200.931 114.801 146.596  0.00  0.00    -0.000 A 
ATOM     53  C   LIG    1      202.221 115.147 146.229  0.00  0.00    -0.003 A 
ENDBRANCH  47  48
BRANCH  47  54
ATOM     54  N   LIG    1      205.219 114.077 146.183  0.00  0.00    -0.196 NA
ATOM     55  C   LIG    1      205.937 112.943 146.194  0.00  0.00    +0.265 C 
ATOM     56  O   LIG    1      205.992 112.227 145.171  0.00  0.00    -0.268 OA
BRANCH  55  57
ATOM     57  C   LIG    1      206.658 112.536 147.391  0.00  0.00    +0.055 A 
ATOM     58  C   LIG    1      206.110 111.660 148.305  0.00  0.00    +0.005 A 
ATOM     59  C   LIG    1      206.844 111.319 149.411  0.00  0.00    +0.000 A 
ATOM     60  C   LIG    1      208.110 111.817 149.651  0.00  0.00    +0.000 A 
ATOM     61  C   LIG    1      208.647 112.693 148.727  0.00  0.00    +0.000 A 
ATOM     62  C   LIG    1      207.908 113.029 147.623  0.00  0.00    +0.005 A 
ENDBRANCH  55  57
ENDBRANCH  47  54
ENDBRANCH  45  47
ENDBRANCH  43  45
ENDBRANCH  42  43
ENDBRANCH  18  42
TORSDOF 14
ENDMDL
MODEL 4
REMARK VINA RESULT:      -8.9      1.845      2.504
REMARK  Name = 
REMARK                            x       y       z     vdW  Elec       q    Type
REMARK                         _______ _______ _______ _____ _____    ______ ____
ROOT
ATOM      1  C   LIG    1      186.317  89.737 153.984  0.00  0.00    +0.243 C 
ATOM      2  C   LIG    1      185.059  90.506 154.608  0.00  0.00    +0.196 C 
ATOM      3  O   LIG    1      185.695  91.453 154.873  0.00  0.00    -0.292 OA
ATOM      4  C   LIG    1      183.724  90.544 154.932  0.00  0.00    +0.090 C 
ATOM      5  C   LIG    1      182.764  89.363 154.742  0.00  0.00    +0.093 C 
ATOM      6  C   LIG    1      181.365  90.090 154.964  0.00  0.00    +0.191 C 
ATOM      7  C   LIG    1      181.187  89.798 156.512  0.00  0.00    +0.157 C 
ATOM      8  C   LIG    1      182.344  90.926 156.965  0.00  0.00    +0.067 C 
ATOM      9  O   LIG    1      180.139  90.858 156.529  0.00  0.00    -0.349 OA
ATOM     10  C   LIG    1      181.102  91.347 155.612  0.00  0.00    +0.185 C 
ATOM     11  C   LIG    1      182.699  88.159 155.698  0.00  0.00    +0.201 C 
ATOM     12  C   LIG    1      184.052  87.336 155.725  0.00  0.00    +0.170 C 
ATOM     13  C   LIG    1      184.632  87.449 154.342  0.00  0.00    +0.048 C 
ATOM     14  C   LIG    1      185.405  86.125 153.948  0.00  0.00    +0.007 C 
ATOM     15  C   LIG    1      183.726  87.630 153.209  0.00  0.00    +0.007 C 
ATOM     16  O   LIG    1      183.791  85.975 155.639  0.00  0.00    -0.222 OA
ATOM     17  C   LIG    1      184.947  87.497 156.863  0.00  0.00    +0.082 C 
ATOM     18  C   LIG    1      186.174  86.689 156.069  0.00  0.00    +0.189 C 
ATOM     19  C   LIG    1      186.668  88.089 155.388  0.00  0.00    -0.009 C 
ATOM     20  C   LIG    1      187.816  88.814 155.749  0.00  0.00    +0.029 C 
ATOM     21  C   LIG    1      183.339  91.901 154.717  0.00  0.00    +0.010 C 
ATOM     22  C   LIG    1      183.707  90.201 156.534  0.00  0.00    +0.161 C 
ATOM     23  O   LIG    1      184.551  91.350 157.014  0.00  0.00    -0.223 OA
ATOM     24  C   LIG    1      185.731  88.332 154.513  0.00  0.00    -0.000 C 
ENDROOT
BRANCH   1  25
ATOM     25  O   LIG    1      185.743  89.584 152.574  0.00  0.00    -0.440 OA
BRANCH  25  27
ATOM     26  C   LIG    1      188.110  89.256 151.843  0.00  0.00    +0.121 C 
ATOM     27  C   LIG    1      186.675  88.990 151.740  0.00  0.00    +0.318 C 
ATOM     28  O   LIG    1      186.365  88.179 150.831  0.00  0.00    -0.250 OA
ENDBRANCH  25  27
ENDBRANCH   1  25
BRANCH   6  29
ATOM     29  O   LIG    1      180.510  90.008 154.010  0.00  0.00    -0.451 OA
BRANCH  29  30
ATOM     30  C   LIG    1      180.496  90.036 152.684  0.00  0.00    +0.317 C 
ATOM     31  O   LIG    1      180.481  91.115 152.056  0.00  0.00    -0.250 OA
ATOM     32  C   LIG    1      180.495  88.851 151.754  0.00  0.00    +0.121 C 
ENDBRANCH  29  30
ENDBRANCH   6  29
BRANCH  11  33
ATOM     33  O   LIG    1      181.798  87.277 155.137  0.00  0.00    -0.446 OA
BRANCH  33  34
ATOM     34  C   LIG    1      181.002  86.499 154.639  0.00  0.00    +0.341 C 
ATOM     35  O   LIG    1      179.958  86.802 155.270  0.00  0.00    -0.245 OA
BRANCH  34  36
ATOM     36  C   LIG    1      180.762  85.439 153.685  0.00  0.00    +0.076 A 
ATOM     37  C   LIG    1      181.770  84.479 153.425  0.00  0.00    +0.006 A 
ATOM     38  C   LIG    1      181.574  83.461 152.534  0.00  0.00    +0.000 A 
ATOM     39  C   LIG    1      180.395  83.313 151.845  0.00  0.00    +0.000 A 
ATOM     40  C   LIG    1      179.370  84.239 152.070  0.00  0.00    +0.000 A 
ATOM     41  C   LIG    1      179.632  85.239 152.979  0.00  0.00    +0.006 A 
ENDBRANCH  34  36
ENDBRANCH  33  34
ENDBRANCH  11  33
BRANCH  18  42
ATOM     42  O   LIG    1      187.217  86.664 157.169  0.00  0.00    -0.446 OA
BRANCH  42  43
ATOM     43  C   LIG    1      187.122  85.534 157.839  0.00  0.00    +0.350 C 
ATOM     44  O   LIG    1      186.263  85.362 158.731  0.00  0.00    -0.247 OA
BRANCH  43  45
ATOM     45  C   LIG    1      188.068  84.245 157.613  0.00  0.00    +0.273 C 
ATOM     46  O   LIG    1      187.496  83.404 158.706  0.00  0.00    -0.209 OA
BRANCH  45  47
ATOM     47  C   LIG    1      189.292  84.932 158.604  0.00  0.00    +0.159 C 
BRANCH  47  48
ATOM     48  C   LIG    1      190.254  85.445 157.493  0.00  0.00    +0.000 A 
ATOM     49  C   LIG    1      190.674  86.728 157.713  0.00  0.00    -0.003 A 
ATOM     50  C   LIG    1      191.530  87.373 156.844  0.00  0.00    -0.000 A 
ATOM     51  C   LIG    1      191.949  86.671 155.744  0.00  0.00    -0.000 A 
ATOM     52  C   LIG    1      191.537  85.390 155.513  0.00  0.00    -0.000 A 
ATOM     53  C   LIG    1      190.675  84.805 156.427  0.00  0.00    -0.003 A 
ENDBRANCH  47  48
BRANCH  47  54
ATOM     54  N   LIG    1      189.925  83.566 158.916  0.00  0.00    -0.196 NA
ATOM     55  C   LIG    1      190.749  83.310 159.943  0.00  0.00    +0.265 C 
ATOM     56  O   LIG    1      191.059  84.223 160.739  0.00  0.00    -0.268 OA
BRANCH  55  57
ATOM     57  C   LIG    1      191.291  81.974 160.143  0.00  0.00    +0.055 A 
ATOM     58  C   LIG    1      191.475  81.102 159.089  0.00  0.00    +0.005 A 
ATOM     59  C   LIG    1      191.989  79.858 159.348  0.00  0.00    +0.000 A 
ATOM     60  C   LIG    1      192.328  79.438 160.621  0.00  0.00    +0.000 A 
ATOM     61  C   LIG    1      192.138  80.323 161.666  0.00  0.00    +0.000 A 
ATOM     62  C   LIG    1      191.625  81.566 161.400  0.00  0.00    +0.005 A 
ENDBRANCH  55  57
ENDBRANCH  47  54
ENDBRANCH  45  47
ENDBRANCH  43  45
ENDBRANCH  42  43
ENDBRANCH  18  42
TORSDOF 14
ENDMDL
MODEL 5
REMARK VINA RESULT:      -8.8     32.249     35.577
REMARK  Name = 
REMARK                            x       y       z     vdW  Elec       q    Type
REMARK                         _______ _______ _______ _____ _____    ______ ____
ROOT
ATOM      1  C   LIG    1      200.162 115.566 140.697  0.00  0.00    +0.243 C 
ATOM      2  C   LIG    1      199.605 116.997 140.247  0.00  0.00    +0.196 C 
ATOM      3  O   LIG    1      200.226 116.993 139.255  0.00  0.00    -0.292 OA
ATOM      4  C   LIG    1      198.815 118.098 140.480  0.00  0.00    +0.090 C 
ATOM      5  C   LIG    1      198.006 118.313 141.766  0.00  0.00    +0.093 C 
ATOM      6  C   LIG    1      197.079 119.530 141.323  0.00  0.00    +0.191 C 
ATOM      7  C   LIG    1      197.976 120.721 141.859  0.00  0.00    +0.157 C 
ATOM      8  C   LIG    1      199.108 120.562 140.630  0.00  0.00    +0.067 C 
ATOM      9  O   LIG    1      197.167 121.635 141.004  0.00  0.00    -0.349 OA
ATOM     10  C   LIG    1      197.269 120.450 140.234  0.00  0.00    +0.185 C 
ATOM     11  C   LIG    1      198.627 118.797 143.088  0.00  0.00    +0.201 C 
ATOM     12  C   LIG    1      199.687 117.773 143.668  0.00  0.00    +0.170 C 
ATOM     13  C   LIG    1      199.206 116.407 143.262  0.00  0.00    +0.048 C 
ATOM     14  C   LIG    1      199.569 115.333 144.367  0.00  0.00    +0.007 C 
ATOM     15  C   LIG    1      197.773 116.189 143.075  0.00  0.00    +0.007 C 
ATOM     16  O   LIG    1      199.478 117.579 145.027  0.00  0.00    -0.222 OA
ATOM     17  C   LIG    1      201.105 118.076 143.524  0.00  0.00    +0.082 C 
ATOM     18  C   LIG    1      201.527 116.529 143.992  0.00  0.00    +0.189 C 
ATOM     19  C   LIG    1      201.405 116.017 142.447  0.00  0.00    -0.009 C 
ATOM     20  C   LIG    1      202.481 115.709 141.599  0.00  0.00    +0.029 C 
ATOM     21  C   LIG    1      198.340 118.481 139.190  0.00  0.00    +0.010 C 
ATOM     22  C   LIG    1      199.870 119.216 141.047  0.00  0.00    +0.161 C 
ATOM     23  O   LIG    1      200.783 119.281 139.854  0.00  0.00    -0.223 OA
ATOM     24  C   LIG    1      200.116 116.023 142.241  0.00  0.00    -0.000 C 
ENDROOT
BRANCH   1  25
ATOM     25  O   LIG    1      198.806 114.859 140.740  0.00  0.00    -0.440 OA
BRANCH  25  27
ATOM     26  C   LIG    1      198.178 112.686 141.802  0.00  0.00    +0.121 C 
ATOM     27  C   LIG    1      198.982 113.493 140.884  0.00  0.00    +0.318 C 
ATOM     28  O   LIG    1      199.843 112.840 140.242  0.00  0.00    -0.250 OA
ENDBRANCH  25  27
ENDBRANCH   1  25
BRANCH   6  29
ATOM     29  O   LIG    1      195.810 119.354 141.409  0.00  0.00    -0.451 OA
BRANCH  29  30
ATOM     30  C   LIG    1      194.881 118.557 140.898  0.00  0.00    +0.317 C 
ATOM     31  O   LIG    1      195.122 117.361 140.636  0.00  0.00    -0.250 OA
ATOM     32  C   LIG    1      193.460 118.925 140.561  0.00  0.00    +0.121 C 
ENDBRANCH  29  30
ENDBRANCH   6  29
BRANCH  11  33
ATOM     33  O   LIG    1      197.608 118.766 144.019  0.00  0.00    -0.446 OA
BRANCH  33  34
ATOM     34  C   LIG    1      196.709 118.742 144.842  0.00  0.00    +0.341 C 
ATOM     35  O   LIG    1      195.848 118.067 144.222  0.00  0.00    -0.245 OA
BRANCH  34  36
ATOM     36  C   LIG    1      196.239 119.135 146.152  0.00  0.00    +0.076 A 
ATOM     37  C   LIG    1      196.719 118.470 147.305  0.00  0.00    +0.006 A 
ATOM     38  C   LIG    1      196.300 118.820 148.559  0.00  0.00    +0.000 A 
ATOM     39  C   LIG    1      195.397 119.833 148.768  0.00  0.00    +0.000 A 
ATOM     40  C   LIG    1      194.894 120.519 147.656  0.00  0.00    +0.000 A 
ATOM     41  C   LIG    1      195.356 120.116 146.423  0.00  0.00    +0.006 A 
ENDBRANCH  34  36
ENDBRANCH  33  34
ENDBRANCH  11  33
BRANCH  18  42
ATOM     42  O   LIG    1      203.037 116.669 144.000  0.00  0.00    -0.446 OA
BRANCH  42  43
ATOM     43  C   LIG    1      203.496 116.414 145.208  0.00  0.00    +0.350 C 
ATOM     44  O   LIG    1      202.842 116.688 146.237  0.00  0.00    -0.247 OA
BRANCH  43  45
ATOM     45  C   LIG    1      204.924 115.730 145.527  0.00  0.00    +0.273 C 
ATOM     46  O   LIG    1      205.727 116.519 144.546  0.00  0.00    -0.209 OA
BRANCH  45  47
ATOM     47  C   LIG    1      204.592 114.453 144.426  0.00  0.00    +0.159 C 
BRANCH  47  48
ATOM     48  C   LIG    1      203.680 113.574 145.331  0.00  0.00    +0.000 A 
ATOM     49  C   LIG    1      202.552 113.147 144.685  0.00  0.00    -0.003 A 
ATOM     50  C   LIG    1      201.610 112.357 145.310  0.00  0.00    -0.000 A 
ATOM     51  C   LIG    1      201.850 112.012 146.614  0.00  0.00    -0.000 A 
ATOM     52  C   LIG    1      202.971 112.431 147.270  0.00  0.00    -0.000 A 
ATOM     53  C   LIG    1      203.875 113.224 146.581  0.00  0.00    -0.003 A 
ENDBRANCH  47  48
BRANCH  47  54
ATOM     54  N   LIG    1      205.954 113.782 144.661  0.00  0.00    -0.196 NA
ATOM     55  C   LIG    1      206.776 113.337 143.698  0.00  0.00    +0.265 C 
ATOM     56  O   LIG    1      206.453 113.455 142.496  0.00  0.00    -0.268 OA
BRANCH  55  57
ATOM     57  C   LIG    1      208.048 112.716 144.038  0.00  0.00    +0.055 A 
ATOM     58  C   LIG    1      208.471 112.602 145.346  0.00  0.00    +0.005 A 
ATOM     59  C   LIG    1      209.681 112.006 145.596  0.00  0.00    +0.000 A 
ATOM     60  C   LIG    1      210.494 111.516 144.593  0.00  0.00    +0.000 A 
ATOM     61  C   LIG    1      210.056 111.637 143.287  0.00  0.00    +0.000 A 
ATOM     62  C   LIG    1      208.846 112.232 143.044  0.00  0.00    +0.005 A 
ENDBRANCH  55  57
ENDBRANCH  47  54
ENDBRANCH  45  47
ENDBRANCH  43  45
ENDBRANCH  42  43
ENDBRANCH  18  42
TORSDOF 14
ENDMDL
MODEL 6
REMARK VINA RESULT:      -8.6     16.478     19.959
REMARK  Name = 
REMARK                            x       y       z     vdW  Elec       q    Type
REMARK                         _______ _______ _______ _____ _____    ______ ____
ROOT
ATOM      1  C   LIG    1      206.102  96.366 159.072  0.00  0.00    +0.243 C 
ATOM      2  C   LIG    1      205.821  96.693 160.614  0.00  0.00    +0.196 C 
ATOM      3  O   LIG    1      206.947  96.556 160.908  0.00  0.00    -0.292 OA
ATOM      4  C   LIG    1      204.951  97.024 161.625  0.00  0.00    +0.090 C 
ATOM      5  C   LIG    1      203.434  97.154 161.438  0.00  0.00    +0.093 C 
ATOM      6  C   LIG    1      203.034  97.855 162.811  0.00  0.00    +0.191 C 
ATOM      7  C   LIG    1      202.675  96.558 163.646  0.00  0.00    +0.157 C 
ATOM      8  C   LIG    1      204.281  96.107 163.836  0.00  0.00    +0.067 C 
ATOM      9  O   LIG    1      202.760  97.398 164.874  0.00  0.00    -0.349 OA
ATOM     10  C   LIG    1      203.782  97.913 164.038  0.00  0.00    +0.185 C 
ATOM     11  C   LIG    1      202.482  95.947 161.360  0.00  0.00    +0.201 C 
ATOM     12  C   LIG    1      202.776  95.026 160.106  0.00  0.00    +0.170 C 
ATOM     13  C   LIG    1      203.269  95.946 159.024  0.00  0.00    +0.048 C 
ATOM     14  C   LIG    1      202.810  95.434 157.599  0.00  0.00    +0.007 C 
ATOM     15  C   LIG    1      202.814  97.336 159.017  0.00  0.00    +0.007 C 
ATOM     16  O   LIG    1      201.592  94.698 159.459  0.00  0.00    -0.222 OA
ATOM     17  C   LIG    1      203.478  93.766 160.312  0.00  0.00    +0.082 C 
ATOM     18  C   LIG    1      203.712  93.577 158.669  0.00  0.00    +0.189 C 
ATOM     19  C   LIG    1      205.092  94.445 158.756  0.00  0.00    -0.009 C 
ATOM     20  C   LIG    1      206.394  93.922 158.675  0.00  0.00    +0.029 C 
ATOM     21  C   LIG    1      205.704  97.879 162.484  0.00  0.00    +0.010 C 
ATOM     22  C   LIG    1      204.661  95.593 162.367  0.00  0.00    +0.161 C 
ATOM     23  O   LIG    1      206.072  95.265 162.772  0.00  0.00    -0.223 OA
ATOM     24  C   LIG    1      204.659  95.660 158.951  0.00  0.00    -0.000 C 
ENDROOT
BRANCH   1  25
ATOM     25  O   LIG    1      205.626  97.711 158.521  0.00  0.00    -0.440 OA
BRANCH  25  27
ATOM     26  C   LIG    1      207.145  97.304 156.580  0.00  0.00    +0.121 C 
ATOM     27  C   LIG    1      205.900  97.798 157.167  0.00  0.00    +0.318 C 
ATOM     28  O   LIG    1      205.105  98.306 156.336  0.00  0.00    -0.250 OA
ENDBRANCH  25  27
ENDBRANCH   1  25
BRANCH   6  29
ATOM     29  O   LIG    1      202.415  98.977 162.730  0.00  0.00    -0.451 OA
BRANCH  29  30
ATOM     30  C   LIG    1      202.293  99.985 161.877  0.00  0.00    +0.317 C 
ATOM     31  O   LIG    1      201.191 100.274 161.365  0.00  0.00    -0.250 OA
ATOM     32  C   LIG    1      203.386 100.904 161.399  0.00  0.00    +0.121 C 
ENDBRANCH  29  30
ENDBRANCH   6  29
BRANCH  11  33
ATOM     33  O   LIG    1      201.232  96.467 161.091  0.00  0.00    -0.446 OA
BRANCH  33  34
ATOM     34  C   LIG    1      200.128  96.927 160.855  0.00  0.00    +0.341 C 
ATOM     35  O   LIG    1      199.753  97.234 162.015  0.00  0.00    -0.245 OA
BRANCH  34  36
ATOM     36  C   LIG    1      199.124  97.250 159.865  0.00  0.00    +0.076 A 
ATOM     37  C   LIG    1      198.195  98.289 160.113  0.00  0.00    +0.006 A 
ATOM     38  C   LIG    1      197.237  98.625 159.197  0.00  0.00    +0.000 A 
ATOM     39  C   LIG    1      197.124  97.977 157.991  0.00  0.00    +0.000 A 
ATOM     40  C   LIG    1      198.023  96.942 157.703  0.00  0.00    +0.000 A 
ATOM     41  C   LIG    1      198.961  96.654 158.668  0.00  0.00    +0.006 A 
ENDBRANCH  34  36
ENDBRANCH  33  34
ENDBRANCH  11  33
BRANCH  18  42
ATOM     42  O   LIG    1      204.375  92.213 158.661  0.00  0.00    -0.446 OA
BRANCH  42  43
ATOM     43  C   LIG    1      203.732  91.417 157.830  0.00  0.00    +0.350 C 
ATOM     44  O   LIG    1      203.242  90.330 158.201  0.00  0.00    -0.247 OA
BRANCH  43  45
ATOM     45  C   LIG    1      203.491  91.722 156.263  0.00  0.00    +0.273 C 
ATOM     46  O   LIG    1      202.403  90.722 156.048  0.00  0.00    -0.209 OA
BRANCH  45  47
ATOM     47  C   LIG    1      204.752  90.638 155.828  0.00  0.00    +0.159 C 
BRANCH  47  48
ATOM     48  C   LIG    1      205.914  91.661 155.666  0.00  0.00    +0.000 A 
ATOM     49  C   LIG    1      205.542  92.774 154.964  0.00  0.00    -0.003 A 
ATOM     50  C   LIG    1      206.425  93.802 154.708  0.00  0.00    -0.000 A 
ATOM     51  C   LIG    1      207.701  93.665 155.189  0.00  0.00    -0.000 A 
ATOM     52  C   LIG    1      208.085  92.559 155.892  0.00  0.00    -0.000 A 
ATOM     53  C   LIG    1      207.146  91.564 156.112  0.00  0.00    -0.003 A 
ENDBRANCH  47  48
BRANCH  47  54
ATOM     54  N   LIG    1      204.269  90.528 154.372  0.00  0.00    -0.196 NA
ATOM     55  C   LIG    1      204.713  89.634 153.475  0.00  0.00    +0.265 C 
ATOM     56  O   LIG    1      205.588  88.803 153.799  0.00  0.00    -0.268 OA
BRANCH  55  57
ATOM     57  C   LIG    1      204.182  89.621 152.119  0.00  0.00    +0.055 A 
ATOM     58  C   LIG    1      204.104  88.458 151.382  0.00  0.00    +0.005 A 
ATOM     59  C   LIG    1      203.595  88.517 150.111  0.00  0.00    +0.000 A 
ATOM     60  C   LIG    1      203.155  89.695 149.536  0.00  0.00    +0.000 A 
ATOM     61  C   LIG    1      203.239  90.852 150.287  0.00  0.00    +0.000 A 
ATOM     62  C   LIG    1      203.749  90.785 151.557  0.00  0.00    +0.005 A 
ENDBRANCH  55  57
ENDBRANCH  47  54
ENDBRANCH  45  47
ENDBRANCH  43  45
ENDBRANCH  42  43
ENDBRANCH  18  42
TORSDOF 14
ENDMDL
MODEL 7
REMARK VINA RESULT:      -8.6     17.826     20.197
REMARK  Name = 
REMARK                            x       y       z     vdW  Elec       q    Type
REMARK                         _______ _______ _______ _____ _____    ______ ____
ROOT
ATOM      1  C   LIG    1      205.712  96.752 160.598  0.00  0.00    +0.243 C 
ATOM      2  C   LIG    1      204.749  97.437 161.677  0.00  0.00    +0.196 C 
ATOM      3  O   LIG    1      205.429  97.113 162.574  0.00  0.00    -0.292 OA
ATOM      4  C   LIG    1      203.616  98.152 161.984  0.00  0.00    +0.090 C 
ATOM      5  C   LIG    1      202.569  98.579 160.948  0.00  0.00    +0.093 C 
ATOM      6  C   LIG    1      201.717  99.614 161.808  0.00  0.00    +0.191 C 
ATOM      7  C   LIG    1      200.592  98.626 162.325  0.00  0.00    +0.157 C 
ATOM      8  C   LIG    1      201.611  97.873 163.427  0.00  0.00    +0.067 C 
ATOM      9  O   LIG    1      200.241  99.655 163.344  0.00  0.00    -0.349 OA
ATOM     10  C   LIG    1      201.652  99.748 163.239  0.00  0.00    +0.185 C 
ATOM     11  C   LIG    1      201.504  97.627 160.374  0.00  0.00    +0.201 C 
ATOM     12  C   LIG    1      202.142  96.430 159.557  0.00  0.00    +0.170 C 
ATOM     13  C   LIG    1      203.394  96.979 158.930  0.00  0.00    +0.048 C 
ATOM     14  C   LIG    1      203.658  96.307 157.521  0.00  0.00    +0.007 C 
ATOM     15  C   LIG    1      203.458  98.405 158.611  0.00  0.00    +0.007 C 
ATOM     16  O   LIG    1      201.470  96.253 158.355  0.00  0.00    -0.222 OA
ATOM     17  C   LIG    1      202.202  95.112 160.176  0.00  0.00    +0.082 C 
ATOM     18  C   LIG    1      203.224  94.549 158.980  0.00  0.00    +0.189 C 
ATOM     19  C   LIG    1      204.518  95.084 159.821  0.00  0.00    -0.009 C 
ATOM     20  C   LIG    1      205.424  94.277 160.529  0.00  0.00    +0.029 C 
ATOM     21  C   LIG    1      203.993  98.971 163.090  0.00  0.00    +0.010 C 
ATOM     22  C   LIG    1      202.555  97.002 162.470  0.00  0.00    +0.161 C 
ATOM     23  O   LIG    1      203.341  96.454 163.629  0.00  0.00    -0.223 OA
ATOM     24  C   LIG    1      204.437  96.379 159.686  0.00  0.00    -0.000 C 
ENDROOT
BRANCH   1  25
ATOM     25  O   LIG    1      206.042  98.031 159.826  0.00  0.00    -0.440 OA
BRANCH  25  27
ATOM     26  C   LIG    1      208.145  96.804 159.264  0.00  0.00    +0.121 C 
ATOM     27  C   LIG    1      207.129  97.821 158.994  0.00  0.00    +0.318 C 
ATOM     28  O   LIG    1      207.329  98.484 157.945  0.00  0.00    -0.250 OA
ENDBRANCH  25  27
ENDBRANCH   1  25
BRANCH   6  29
ATOM     29  O   LIG    1      201.613 100.807 161.344  0.00  0.00    -0.451 OA
BRANCH  29  30
ATOM     30  C   LIG    1      202.351 101.678 160.670  0.00  0.00    +0.317 C 
ATOM     31  O   LIG    1      203.263 102.325 161.225  0.00  0.00    -0.250 OA
ATOM     32  C   LIG    1      202.232 102.026 159.210  0.00  0.00    +0.121 C 
ENDBRANCH  29  30
ENDBRANCH   6  29
BRANCH  11  33
ATOM     33  O   LIG    1      200.829  98.349 159.412  0.00  0.00    -0.446 OA
BRANCH  33  34
ATOM     34  C   LIG    1      200.231  98.985 158.560  0.00  0.00    +0.341 C 
ATOM     35  O   LIG    1      199.261  99.418 159.233  0.00  0.00    -0.245 OA
BRANCH  34  36
ATOM     36  C   LIG    1      200.168  99.428 157.185  0.00  0.00    +0.076 A 
ATOM     37  C   LIG    1      200.682  98.606 156.153  0.00  0.00    +0.006 A 
ATOM     38  C   LIG    1      200.633  98.991 154.842  0.00  0.00    +0.000 A 
ATOM     39  C   LIG    1      200.086 100.190 154.455  0.00  0.00    +0.000 A 
ATOM     40  C   LIG    1      199.566 101.036 155.442  0.00  0.00    +0.000 A 
ATOM     41  C   LIG    1      199.647 100.588 156.742  0.00  0.00    +0.006 A 
ENDBRANCH  34  36
ENDBRANCH  33  34
ENDBRANCH  11  33
BRANCH  18  42
ATOM     42  O   LIG    1      203.339  93.098 159.406  0.00  0.00    -0.446 OA
BRANCH  42  43
ATOM     43  C   LIG    1      202.795  92.327 158.488  0.00  0.00    +0.350 C 
ATOM     44  O   LIG    1      202.182  91.278 158.781  0.00  0.00    -0.247 OA
BRANCH  43  45
ATOM     45  C   LIG    1      202.836  92.614 156.899  0.00  0.00    +0.273 C 
ATOM     46  O   LIG    1      201.729  91.687 156.517  0.00  0.00    -0.209 OA
BRANCH  45  47
ATOM     47  C   LIG    1      204.070  91.437 156.688  0.00  0.00    +0.159 C 
BRANCH  47  48
ATOM     48  C   LIG    1      205.318  92.359 156.815  0.00  0.00    +0.000 A 
ATOM     49  C   LIG    1      206.258  91.856 157.672  0.00  0.00    -0.003 A 
ATOM     50  C   LIG    1      207.439  92.520 157.928  0.00  0.00    -0.000 A 
ATOM     51  C   LIG    1      207.637  93.713 157.284  0.00  0.00    -0.000 A 
ATOM     52  C   LIG    1      206.708  94.226 156.426  0.00  0.00    -0.000 A 
ATOM     53  C   LIG    1      205.542  93.505 156.216  0.00  0.00    -0.003 A 
ENDBRANCH  47  48
BRANCH  47  54
ATOM     54  N   LIG    1      203.896  91.406 155.161  0.00  0.00    -0.196 NA
ATOM     55  C   LIG    1      204.432  90.491 154.338  0.00  0.00    +0.265 C 
ATOM     56  O   LIG    1      205.137  89.569 154.802  0.00  0.00    -0.268 OA
BRANCH  55  57
ATOM     57  C   LIG    1      204.200  90.561 152.903  0.00  0.00    +0.055 A 
ATOM     58  C   LIG    1      203.381  89.658 152.257  0.00  0.00    +0.005 A 
ATOM     59  C   LIG    1      203.207  89.780 150.902  0.00  0.00    +0.000 A 
ATOM     60  C   LIG    1      203.818  90.770 150.156  0.00  0.00    +0.000 A 
ATOM     61  C   LIG    1      204.635  91.668 150.818  0.00  0.00    +0.000 A 
ATOM     62  C   LIG    1      204.804  91.540 152.171  0.00  0.00    +0.005 A 
ENDBRANCH  55  57
ENDBRANCH  47  54
ENDBRANCH  45  47
ENDBRANCH  43  45
ENDBRANCH  42  43
ENDBRANCH  18  42
TORSDOF 14
ENDMDL
MODEL 8
REMARK VINA RESULT:      -8.4     32.160     35.292
REMARK  Name = 
REMARK                            x       y       z     vdW  Elec       q    Type
REMARK                         _______ _______ _______ _____ _____    ______ ____
ROOT
ATOM      1  C   LIG    1      200.353 115.094 140.693  0.00  0.00    +0.243 C 
ATOM      2  C   LIG    1      200.041 116.581 140.189  0.00  0.00    +0.196 C 
ATOM      3  O   LIG    1      200.876 116.540 139.368  0.00  0.00    -0.292 OA
ATOM      4  C   LIG    1      199.317 117.745 140.280  0.00  0.00    +0.090 C 
ATOM      5  C   LIG    1      198.251 118.006 141.352  0.00  0.00    +0.093 C 
ATOM      6  C   LIG    1      197.561 119.314 140.761  0.00  0.00    +0.191 C 
ATOM      7  C   LIG    1      198.406 120.404 141.540  0.00  0.00    +0.157 C 
ATOM      8  C   LIG    1      199.777 120.167 140.601  0.00  0.00    +0.067 C 
ATOM      9  O   LIG    1      197.902 121.409 140.562  0.00  0.00    -0.349 OA
ATOM     10  C   LIG    1      198.080 120.236 139.785  0.00  0.00    +0.185 C 
ATOM     11  C   LIG    1      198.583 118.401 142.802  0.00  0.00    +0.201 C 
ATOM     12  C   LIG    1      199.386 117.270 143.567  0.00  0.00    +0.170 C 
ATOM     13  C   LIG    1      198.899 115.964 143.002  0.00  0.00    +0.048 C 
ATOM     14  C   LIG    1      198.899 114.836 144.113  0.00  0.00    +0.007 C 
ATOM     15  C   LIG    1      197.536 115.886 142.479  0.00  0.00    +0.007 C 
ATOM     16  O   LIG    1      198.849 117.066 144.831  0.00  0.00    -0.222 OA
ATOM     17  C   LIG    1      200.819 117.442 143.767  0.00  0.00    +0.082 C 
ATOM     18  C   LIG    1      200.986 115.852 144.253  0.00  0.00    +0.189 C 
ATOM     19  C   LIG    1      201.185 115.388 142.701  0.00  0.00    -0.009 C 
ATOM     20  C   LIG    1      202.400 114.999 142.112  0.00  0.00    +0.029 C 
ATOM     21  C   LIG    1      199.192 118.199 138.934  0.00  0.00    +0.010 C 
ATOM     22  C   LIG    1      200.301 118.746 141.124  0.00  0.00    +0.161 C 
ATOM     23  O   LIG    1      201.471 118.752 140.178  0.00  0.00    -0.223 OA
ATOM     24  C   LIG    1      199.986 115.519 142.203  0.00  0.00    -0.000 C 
ENDROOT
BRANCH   1  25
ATOM     25  O   LIG    1      198.969 114.516 140.390  0.00  0.00    -0.440 OA
BRANCH  25  27
ATOM     26  C   LIG    1      197.883 112.493 141.377  0.00  0.00    +0.121 C 
ATOM     27  C   LIG    1      198.956 113.153 140.632  0.00  0.00    +0.318 C 
ATOM     28  O   LIG    1      199.860 112.376 140.234  0.00  0.00    -0.250 OA
ENDBRANCH  25  27
ENDBRANCH   1  25
BRANCH   6  29
ATOM     29  O   LIG    1      196.297 119.256 140.543  0.00  0.00    -0.451 OA
BRANCH  29  30
ATOM     30  C   LIG    1      195.194 119.890 140.918  0.00  0.00    +0.317 C 
ATOM     31  O   LIG    1      195.134 121.137 140.931  0.00  0.00    -0.250 OA
ATOM     32  C   LIG    1      193.900 119.266 141.367  0.00  0.00    +0.121 C 
ENDBRANCH  29  30
ENDBRANCH   6  29
BRANCH  11  33
ATOM     33  O   LIG    1      197.377 118.445 143.470  0.00  0.00    -0.446 OA
BRANCH  33  34
ATOM     34  C   LIG    1      196.310 118.481 144.059  0.00  0.00    +0.341 C 
ATOM     35  O   LIG    1      195.708 117.525 143.508  0.00  0.00    -0.245 OA
BRANCH  34  36
ATOM     36  C   LIG    1      195.490 119.120 145.065  0.00  0.00    +0.076 A 
ATOM     37  C   LIG    1      194.089 118.925 145.065  0.00  0.00    +0.006 A 
ATOM     38  C   LIG    1      193.285 119.509 146.005  0.00  0.00    +0.000 A 
ATOM     39  C   LIG    1      193.791 120.313 146.997  0.00  0.00    +0.000 A 
ATOM     40  C   LIG    1      195.173 120.535 147.036  0.00  0.00    +0.000 A 
ATOM     41  C   LIG    1      195.924 119.918 146.061  0.00  0.00    +0.006 A 
ENDBRANCH  34  36
ENDBRANCH  33  34
ENDBRANCH  11  33
BRANCH  18  42
ATOM     42  O   LIG    1      202.459 115.850 144.616  0.00  0.00    -0.446 OA
BRANCH  42  43
ATOM     43  C   LIG    1      202.668 114.993 145.595  0.00  0.00    +0.350 C 
ATOM     44  O   LIG    1      202.278 115.210 146.761  0.00  0.00    -0.247 OA
BRANCH  43  45
ATOM     45  C   LIG    1      203.435 113.580 145.435  0.00  0.00    +0.273 C 
ATOM     46  O   LIG    1      203.206 113.090 146.826  0.00  0.00    -0.209 OA
BRANCH  45  47
ATOM     47  C   LIG    1      204.941 114.322 145.804  0.00  0.00    +0.159 C 
BRANCH  47  48
ATOM     48  C   LIG    1      205.459 114.567 144.357  0.00  0.00    +0.000 A 
ATOM     49  C   LIG    1      205.810 115.871 144.138  0.00  0.00    -0.003 A 
ATOM     50  C   LIG    1      206.293 116.300 142.919  0.00  0.00    -0.000 A 
ATOM     51  C   LIG    1      206.409 115.362 141.928  0.00  0.00    -0.000 A 
ATOM     52  C   LIG    1      206.063 114.057 142.133  0.00  0.00    -0.000 A 
ATOM     53  C   LIG    1      205.584 113.696 143.383  0.00  0.00    -0.003 A 
ENDBRANCH  47  48
BRANCH  47  54
ATOM     54  N   LIG    1      205.619 112.980 146.123  0.00  0.00    -0.196 NA
ATOM     55  C   LIG    1      206.730 112.830 146.861  0.00  0.00    +0.265 C 
ATOM     56  O   LIG    1      207.297 113.830 147.350  0.00  0.00    -0.268 OA
BRANCH  55  57
ATOM     57  C   LIG    1      207.286 111.505 147.099  0.00  0.00    +0.055 A 
ATOM     58  C   LIG    1      207.985 111.210 148.251  0.00  0.00    +0.005 A 
ATOM     59  C   LIG    1      208.483 109.942 148.411  0.00  0.00    +0.000 A 
ATOM     60  C   LIG    1      208.314 108.948 147.466  0.00  0.00    +0.000 A 
ATOM     61  C   LIG    1      207.612 109.259 146.317  0.00  0.00    +0.000 A 
ATOM     62  C   LIG    1      207.116 110.527 146.164  0.00  0.00    +0.005 A 
ENDBRANCH  55  57
ENDBRANCH  47  54
ENDBRANCH  45  47
ENDBRANCH  43  45
ENDBRANCH  42  43
ENDBRANCH  18  42
TORSDOF 14
ENDMDL
MODEL 9
REMARK VINA RESULT:      -8.4     23.209     27.605
REMARK  Name = 
REMARK                            x       y       z     vdW  Elec       q    Type
REMARK                         _______ _______ _______ _____ _____    ______ ____
ROOT
ATOM      1  C   LIG    1      207.704 102.261 153.603  0.00  0.00    +0.243 C 
ATOM      2  C   LIG    1      209.005 102.903 154.280  0.00  0.00    +0.196 C 
ATOM      3  O   LIG    1      209.457 101.854 154.541  0.00  0.00    -0.292 OA
ATOM      4  C   LIG    1      209.740 104.004 154.648  0.00  0.00    +0.090 C 
ATOM      5  C   LIG    1      209.261 105.450 154.467  0.00  0.00    +0.093 C 
ATOM      6  C   LIG    1      210.614 106.240 154.747  0.00  0.00    +0.191 C 
ATOM      7  C   LIG    1      210.414 106.519 156.294  0.00  0.00    +0.157 C 
ATOM      8  C   LIG    1      210.735 104.930 156.730  0.00  0.00    +0.067 C 
ATOM      9  O   LIG    1      211.868 106.838 156.364  0.00  0.00    -0.349 OA
ATOM     10  C   LIG    1      211.796 105.778 155.424  0.00  0.00    +0.185 C 
ATOM     11  C   LIG    1      208.247 106.132 155.404  0.00  0.00    +0.201 C 
ATOM     12  C   LIG    1      206.828 105.428 155.374  0.00  0.00    +0.170 C 
ATOM     13  C   LIG    1      206.659 104.902 153.975  0.00  0.00    +0.048 C 
ATOM     14  C   LIG    1      205.140 104.963 153.533  0.00  0.00    +0.007 C 
ATOM     15  C   LIG    1      207.331 105.591 152.875  0.00  0.00    +0.007 C 
ATOM     16  O   LIG    1      205.820 106.377 155.272  0.00  0.00    -0.222 OA
ATOM     17  C   LIG    1      206.451 104.565 156.485  0.00  0.00    +0.082 C 
ATOM     18  C   LIG    1      205.138 103.975 155.638  0.00  0.00    +0.189 C 
ATOM     19  C   LIG    1      206.079 102.821 154.967  0.00  0.00    -0.009 C 
ATOM     20  C   LIG    1      206.068 101.457 155.303  0.00  0.00    +0.029 C 
ATOM     21  C   LIG    1      211.099 103.608 154.468  0.00  0.00    +0.010 C 
ATOM     22  C   LIG    1      209.409 104.174 156.243  0.00  0.00    +0.161 C 
ATOM     23  O   LIG    1      209.913 102.838 156.715  0.00  0.00    -0.223 OA
ATOM     24  C   LIG    1      206.813 103.498 154.126  0.00  0.00    -0.000 C 
ENDROOT
BRANCH   1  25
ATOM     25  O   LIG    1      207.926 102.853 152.210  0.00  0.00    -0.440 OA
BRANCH  25  27
ATOM     26  C   LIG    1      206.499 102.316 150.230  0.00  0.00    +0.121 C 
ATOM     27  C   LIG    1      207.498 101.963 151.239  0.00  0.00    +0.318 C 
ATOM     28  O   LIG    1      207.932 100.787 151.145  0.00  0.00    -0.250 OA
ENDBRANCH  25  27
ENDBRANCH   1  25
BRANCH   6  29
ATOM     29  O   LIG    1      211.032 107.023 153.819  0.00  0.00    -0.451 OA
BRANCH  29  30
ATOM     30  C   LIG    1      211.351 106.958 152.533  0.00  0.00    +0.317 C 
ATOM     31  O   LIG    1      211.425 107.985 151.829  0.00  0.00    -0.250 OA
ATOM     32  C   LIG    1      211.659 105.716 151.739  0.00  0.00    +0.121 C 
ENDBRANCH  29  30
ENDBRANCH   6  29
BRANCH  11  33
ATOM     33  O   LIG    1      208.001 107.374 154.857  0.00  0.00    -0.446 OA
BRANCH  33  34
ATOM     34  C   LIG    1      207.784 108.472 154.371  0.00  0.00    +0.341 C 
ATOM     35  O   LIG    1      207.845 109.195 155.397  0.00  0.00    -0.245 OA
BRANCH  34  36
ATOM     36  C   LIG    1      207.503 109.249 153.184  0.00  0.00    +0.076 A 
ATOM     37  C   LIG    1      206.283 109.958 153.074  0.00  0.00    +0.006 A 
ATOM     38  C   LIG    1      205.988 110.707 151.968  0.00  0.00    +0.000 A 
ATOM     39  C   LIG    1      206.856 110.813 150.909  0.00  0.00    +0.000 A 
ATOM     40  C   LIG    1      208.075 110.128 150.974  0.00  0.00    +0.000 A 
ATOM     41  C   LIG    1      208.309 109.393 152.114  0.00  0.00    +0.006 A 
ENDBRANCH  34  36
ENDBRANCH  33  34
ENDBRANCH  11  33
BRANCH  18  42
ATOM     42  O   LIG    1      204.525 103.087 156.704  0.00  0.00    -0.446 OA
BRANCH  42  43
ATOM     43  C   LIG    1      203.272 103.442 156.903  0.00  0.00    +0.350 C 
ATOM     44  O   LIG    1      202.819 103.658 158.047  0.00  0.00    -0.247 OA
BRANCH  43  45
ATOM     45  C   LIG    1      202.174 103.645 155.737  0.00  0.00    +0.273 C 
ATOM     46  O   LIG    1      201.045 104.064 156.619  0.00  0.00    -0.209 OA
BRANCH  45  47
ATOM     47  C   LIG    1      201.767 101.976 155.788  0.00  0.00    +0.159 C 
BRANCH  47  48
ATOM     48  C   LIG    1      202.516 101.497 154.510  0.00  0.00    +0.000 A 
ATOM     49  C   LIG    1      202.901 100.187 154.586  0.00  0.00    -0.003 A 
ATOM     50  C   LIG    1      203.580  99.567 153.558  0.00  0.00    -0.000 A 
ATOM     51  C   LIG    1      203.856 100.321 152.448  0.00  0.00    -0.000 A 
ATOM     52  C   LIG    1      203.477 101.629 152.359  0.00  0.00    -0.000 A 
ATOM     53  C   LIG    1      202.798 102.188 153.430  0.00  0.00    -0.003 A 
ENDBRANCH  47  48
BRANCH  47  54
ATOM     54  N   LIG    1      200.360 102.215 155.218  0.00  0.00    -0.196 NA
ATOM     55  C   LIG    1      199.333 101.355 155.304  0.00  0.00    +0.265 C 
ATOM     56  O   LIG    1      199.481 100.258 155.883  0.00  0.00    -0.268 OA
BRANCH  55  57
ATOM     57  C   LIG    1      198.039 101.688 154.725  0.00  0.00    +0.055 A 
ATOM     58  C   LIG    1      196.866 101.527 155.433  0.00  0.00    +0.005 A 
ATOM     59  C   LIG    1      195.682 101.860 154.827  0.00  0.00    +0.000 A 
ATOM     60  C   LIG    1      195.614 102.349 153.536  0.00  0.00    +0.000 A 
ATOM     61  C   LIG    1      196.798 102.506 152.840  0.00  0.00    +0.000 A 
ATOM     62  C   LIG    1      197.978 102.172 153.451  0.00  0.00    +0.005 A 
ENDBRANCH  55  57
ENDBRANCH  47  54
ENDBRANCH  45  47
ENDBRANCH  43  45
ENDBRANCH  42  43
ENDBRANCH  18  42
TORSDOF 14
ENDMDL
