REMARK VINA RESULT:      -6.4     81.325     86.347
REMARK  Name = ZINC000193546412
REMARK                            x       y       z     vdW  Elec       q    Type
REMARK                         _______ _______ _______ _____ _____    ______ ____
ROOT
ATOM      1  C   LIG    1      202.824 114.244 145.710  0.00  0.00    +0.171 A 
ATOM      2  N   LIG    1      201.898 115.022 146.356  0.00  0.00    -0.204 NA
ATOM      3  C   LIG    1      200.960 115.311 145.524  0.00  0.00    +0.185 A 
ATOM      4  S   LIG    1      201.176 114.653 143.957  0.00  0.00    +0.050 S 
ATOM      5  N   LIG    1      202.586 113.966 144.452  0.00  0.00    -0.187 NA
ENDROOT
BRANCH   1   9
ATOM      6  C   LIG    1      206.324 112.800 147.702  0.00  0.00    +0.120 A 
ATOM      7  C   LIG    1      205.137 112.072 147.776  0.00  0.00    +0.046 A 
ATOM      8  C   LIG    1      204.002 112.545 147.125  0.00  0.00    +0.015 A 
ATOM      9  C   LIG    1      204.027 113.747 146.393  0.00  0.00    +0.020 A 
ATOM     10  C   LIG    1      205.241 114.458 146.338  0.00  0.00    +0.015 A 
ATOM     11  C   LIG    1      206.379 113.990 146.987  0.00  0.00    +0.046 A 
BRANCH   6  13
ATOM     12  C   LIG    1      208.796 112.930 148.077  0.00  0.00    +0.277 C 
ATOM     13  O   LIG    1      207.480 112.385 148.323  0.00  0.00    -0.495 OA
ENDBRANCH   6  13
ENDBRANCH   1   9
BRANCH   3  14
ATOM     14  N   LIG    1      199.898 116.105 145.962  0.00  0.00    -0.259 N 
ATOM     15  H   LIG    1      199.158 115.593 146.449  0.00  0.00    +0.157 HD
ATOM     16  C   LIG    1      199.729 117.457 145.826  0.00  0.00    +0.254 C 
ATOM     17  O   LIG    1      200.594 118.087 145.239  0.00  0.00    -0.270 OA
BRANCH  16  18
ATOM     18  C   LIG    1      198.537 118.093 146.370  0.00  0.00    +0.089 A 
ATOM     19  C   LIG    1      198.262 118.511 147.645  0.00  0.00    +0.182 A 
ATOM     20 BR   LIG    1      199.244 118.482 149.258  0.00  0.00    -0.008 Br
ATOM     21  O   LIG    1      197.025 119.047 147.693  0.00  0.00    -0.456 OA
ATOM     22  C   LIG    1      196.496 118.979 146.447  0.00  0.00    +0.197 A 
ATOM     23  C   LIG    1      197.389 118.405 145.615  0.00  0.00    +0.055 A 
ENDBRANCH  16  18
ENDBRANCH   3  14
TORSDOF 4
