REMARK VINA RESULT:      -6.9      3.020      8.381
REMARK  Name = ZINC000000623420
REMARK                            x       y       z     vdW  Elec       q    Type
REMARK                         _______ _______ _______ _____ _____    ______ ____
ROOT
ATOM      1  C   LIG    1      169.318 147.902 145.483  0.00  0.00    +0.102 A 
ATOM      2  C   LIG    1      170.100 148.985 145.104  0.00  0.00    -0.014 A 
ATOM      3  C   LIG    1      171.146 148.915 143.999  0.00  0.00    +0.046 C 
ATOM      4  C   LIG    1      169.831 150.169 145.849  0.00  0.00    +0.091 A 
ATOM      5  C   LIG    1      168.801 149.956 146.762  0.00  0.00    +0.087 A 
ATOM      6  S   LIG    1      168.186 148.351 146.725  0.00  0.00    -0.066 S 
ENDROOT
BRANCH   5   7
ATOM      7  N   LIG    1      168.264 150.932 147.625  0.00  0.00    -0.275 N 
ATOM      8  H   LIG    1      168.463 150.800 148.628  0.00  0.00    +0.156 HD
ATOM      9  C   LIG    1      167.477 152.033 147.336  0.00  0.00    +0.249 C 
ATOM     10  O   LIG    1      167.110 152.238 146.190  0.00  0.00    -0.270 OA
BRANCH   9  11
ATOM     11  C   LIG    1      167.116 152.882 148.474  0.00  0.00    +0.040 A 
ATOM     12  C   LIG    1      165.791 152.964 148.949  0.00  0.00    -0.038 A 
ATOM     13  C   LIG    1      164.671 152.158 148.311  0.00  0.00    +0.044 C 
ATOM     14  C   LIG    1      165.494 153.796 150.028  0.00  0.00    +0.004 A 
ATOM     15  C   LIG    1      166.493 154.550 150.636  0.00  0.00    +0.000 A 
ATOM     16  C   LIG    1      167.801 154.474 150.176  0.00  0.00    +0.001 A 
ATOM     17  C   LIG    1      168.112 153.645 149.105  0.00  0.00    +0.013 A 
ENDBRANCH   9  11
ENDBRANCH   5   7
BRANCH   1  18
ATOM     18  C   LIG    1      169.334 146.524 145.019  0.00  0.00    +0.346 C 
ATOM     19  O   LIG    1      168.643 146.068 144.114  0.00  0.00    -0.244 OA
BRANCH  18  20
ATOM     20  O   LIG    1      170.188 145.663 145.627  0.00  0.00    -0.461 OA
BRANCH  20  22
ATOM     21  C   LIG    1      172.467 145.973 146.122  0.00  0.00    +0.048 C 
ATOM     22  C   LIG    1      171.502 145.382 145.097  0.00  0.00    +0.229 C 
ENDBRANCH  20  22
ENDBRANCH  18  20
ENDBRANCH   1  18
BRANCH   4  23
ATOM     23  C   LIG    1      170.534 151.438 145.712  0.00  0.00    +0.342 C 
ATOM     24  O   LIG    1      170.419 152.214 144.770  0.00  0.00    -0.245 OA
BRANCH  23  25
ATOM     25  O   LIG    1      171.406 151.823 146.695  0.00  0.00    -0.461 OA
BRANCH  25  26
ATOM     26  C   LIG    1      172.569 151.049 147.098  0.00  0.00    +0.229 C 
ATOM     27  C   LIG    1      172.143 150.316 148.370  0.00  0.00    +0.048 C 
ENDBRANCH  25  26
ENDBRANCH  23  25
ENDBRANCH   4  23
TORSDOF 8
