REMARK VINA RESULT:      -6.4     65.487     70.567
REMARK  Name = 
REMARK                            x       y       z     vdW  Elec       q    Type
REMARK                         _______ _______ _______ _____ _____    ______ ____
ROOT
ATOM      1  C   LIG    1      189.182  85.041 158.736  0.00  0.00    +0.155 A 
ATOM      2  C   LIG    1      189.900  83.926 159.136  0.00  0.00    +0.054 A 
ATOM      3  C   LIG    1      189.928  82.775 158.376  0.00  0.00    +0.089 A 
ATOM      4  C   LIG    1      190.650  81.644 158.771  0.00  0.00    +0.059 A 
ATOM      5  C   LIG    1      191.356  81.671 159.954  0.00  0.00    +0.174 A 
ATOM      6  C   LIG    1      191.313  82.831 160.696  0.00  0.00    +0.173 A 
ATOM      7  N   LIG    1      189.238  82.751 157.222  0.00  0.00    -0.224 NA
ATOM      8  C   LIG    1      188.540  83.828 156.828  0.00  0.00    +0.200 A 
ATOM      9  C   LIG    1      190.612  83.939 160.319  0.00  0.00    +0.044 A 
ATOM     10  N   LIG    1      188.520  84.945 157.578  0.00  0.00    -0.207 NA
ENDROOT
BRANCH   1  11
ATOM     11  N   LIG    1      189.204  86.177 159.571  0.00  0.00    -0.194 NA
BRANCH  11  14
ATOM     12  C   LIG    1      189.359  89.831 158.883  0.00  0.00    +0.044 A 
ATOM     13  C   LIG    1      188.945  88.582 159.298  0.00  0.00    +0.025 A 
ATOM     14  C   LIG    1      189.694  87.439 159.115  0.00  0.00    +0.073 A 
ATOM     15  C   LIG    1      190.920  87.520 158.490  0.00  0.00    +0.017 A 
ATOM     16  C   LIG    1      191.357  88.756 158.064  0.00  0.00    +0.002 A 
ATOM     17  C   LIG    1      190.597  89.885 158.256  0.00  0.00    +0.008 A 
BRANCH  12  19
ATOM     18  C   LIG    1      187.892  92.022 159.233  0.00  0.00    -0.009 C 
ATOM     19  C   LIG    1      188.560  91.019 159.083  0.00  0.00    -0.051 C 
ENDBRANCH  12  19
ENDBRANCH  11  14
ENDBRANCH   1  11
BRANCH   6  20
ATOM     20  O   LIG    1      192.034  82.835 161.888  0.00  0.00    -0.470 OA
BRANCH  20  21
ATOM     21  C   LIG    1      193.243  83.513 162.075  0.00  0.00    +0.237 C 
BRANCH  21  22
ATOM     22  C   LIG    1      194.420  82.564 162.009  0.00  0.00    +0.189 C 
BRANCH  22  23
ATOM     23  O   LIG    1      195.610  83.308 161.886  0.00  0.00    -0.347 OA
ATOM     24  C   LIG    1      196.714  82.490 161.711  0.00  0.00    +0.174 C 
ENDBRANCH  22  23
ENDBRANCH  21  22
ENDBRANCH  20  21
ENDBRANCH   6  20
BRANCH   5  25
ATOM     25  O   LIG    1      192.098  80.556 160.392  0.00  0.00    -0.470 OA
BRANCH  25  26
ATOM     26  C   LIG    1      192.395  79.505 159.493  0.00  0.00    +0.237 C 
BRANCH  26  27
ATOM     27  C   LIG    1      193.256  78.506 160.250  0.00  0.00    +0.189 C 
BRANCH  27  28
ATOM     28  O   LIG    1      193.876  79.076 161.341  0.00  0.00    -0.347 OA
ATOM     29  C   LIG    1      195.250  78.859 161.298  0.00  0.00    +0.174 C 
ENDBRANCH  27  28
ENDBRANCH  26  27
ENDBRANCH  25  26
ENDBRANCH   5  25
TORSDOF 11
