REMARK VINA RESULT:      -6.3      1.593      2.086
REMARK  Name = ZINC000049399659
REMARK                            x       y       z     vdW  Elec       q    Type
REMARK                         _______ _______ _______ _____ _____    ______ ____
ROOT
ATOM      1  C   LIG    1      164.991 160.597 157.865  0.00  0.00    +0.173 C 
ENDROOT
BRANCH   1   4
ATOM      2  N   LIG    1      163.441 161.536 156.202  0.00  0.00    -0.282 N 
ATOM      3  H   LIG    1      163.173 160.547 156.090  0.00  0.00    +0.155 HD
ATOM      4  C   LIG    1      164.496 161.771 157.048  0.00  0.00    +0.228 C 
ATOM      5  O   LIG    1      165.007 162.869 157.126  0.00  0.00    -0.275 OA
BRANCH   2   7
ATOM      6  C   LIG    1      161.551 162.988 155.895  0.00  0.00    +0.141 A 
ATOM      7  C   LIG    1      162.722 162.430 155.357  0.00  0.00    +0.077 A 
ATOM      8  C   LIG    1      163.136 162.774 154.068  0.00  0.00    +0.047 A 
ATOM      9  C   LIG    1      162.363 163.663 153.320  0.00  0.00    +0.043 A 
ATOM     10 CL   LIG    1      162.859 164.098 151.720  0.00  0.00    -0.083 Cl
ATOM     11  C   LIG    1      161.191 164.212 153.850  0.00  0.00    +0.024 A 
ATOM     12  C   LIG    1      160.784 163.876 155.139  0.00  0.00    +0.049 A 
BRANCH   6  14
ATOM     13  C   LIG    1      160.245 161.589 157.538  0.00  0.00    +0.277 C 
ATOM     14  O   LIG    1      161.185 162.634 157.195  0.00  0.00    -0.493 OA
ENDBRANCH   6  14
ENDBRANCH   2   7
ENDBRANCH   1   4
BRANCH   1  15
ATOM     15  S   LIG    1      163.541 159.509 158.141  0.00  0.00    -0.077 S 
BRANCH  15  16
ATOM     16  C   LIG    1      164.174 158.305 159.220  0.00  0.00    +0.190 A 
ATOM     17  N   LIG    1      165.076 158.694 160.123  0.00  0.00    -0.207 NA
ATOM     18  C   LIG    1      165.559 157.782 160.950  0.00  0.00    +0.126 A 
ATOM     19  C   LIG    1      165.139 156.458 160.885  0.00  0.00    +0.063 A 
ATOM     20  C   LIG    1      164.211 156.119 159.925  0.00  0.00    +0.117 A 
ATOM     21  N   LIG    1      163.735 157.038 159.097  0.00  0.00    -0.230 NA
BRANCH  18  22
ATOM     22  N   LIG    1      166.497 158.174 161.898  0.00  0.00    -0.315 N 
ATOM     23  C   LIG    1      166.824 157.180 162.939  0.00  0.00    +0.106 C 
ATOM     24  C   LIG    1      167.286 157.985 164.168  0.00  0.00    +0.019 C 
ATOM     25  C   LIG    1      168.528 158.798 163.762  0.00  0.00    +0.003 C 
ATOM     26  C   LIG    1      168.164 159.766 162.623  0.00  0.00    +0.019 C 
ATOM     27  C   LIG    1      167.672 158.938 161.420  0.00  0.00    +0.106 C 
ENDBRANCH  18  22
ENDBRANCH  15  16
ENDBRANCH   1  15
TORSDOF 6
