MODEL 1
REMARK VINA RESULT:     -11.8      0.000      0.000
REMARK  Name = 
REMARK                            x       y       z     vdW  Elec       q    Type
REMARK                         _______ _______ _______ _____ _____    ______ ____
ROOT
ATOM      1  C   LIG    1      164.502 118.260 183.637  0.00  0.00    +0.046 C 
ATOM      2  C   LIG    1      164.490 117.432 183.597  0.00  0.00    +0.024 C 
ATOM      3  C   LIG    1      163.232 117.442 183.062  0.00  0.00    +0.072 C 
ATOM      4  N   LIG    1      163.186 118.291 183.078  0.00  0.00    -0.274 NA
ATOM      5  C   LIG    1      162.532 118.721 182.819  0.00  0.00    +0.098 C 
ATOM      6  C   LIG    1      162.547 119.545 182.860  0.00  0.00    -0.013 C 
ATOM      7  C   LIG    1      163.208 119.936 183.158  0.00  0.00    -0.025 C 
ATOM      8  C   LIG    1      163.855 119.506 183.415  0.00  0.00    +0.067 C 
ATOM      9  C   LIG    1      164.524 119.905 183.716  0.00  0.00    +0.212 C 
ATOM     10  C   LIG    1      165.175 119.475 183.975  0.00  0.00    +0.263 C 
ATOM     11  O   LIG    1      165.182 120.295 184.013  0.00  0.00    -0.209 OA
ATOM     12  C   LIG    1      163.851 118.685 183.378  0.00  0.00    +0.087 C 
ATOM     13  C   LIG    1      165.171 118.654 183.938  0.00  0.00    +0.145 C 
ATOM     14  N   LIG    1      165.824 118.225 184.198  0.00  0.00    -0.255 N 
ATOM     15  C   LIG    1      166.486 118.616 184.496  0.00  0.00    +0.307 C 
ATOM     16  O   LIG    1      167.140 118.178 184.756  0.00  0.00    -0.265 OA
ATOM     17  C   LIG    1      165.809 117.401 184.157  0.00  0.00    +0.053 A 
ATOM     18  C   LIG    1      166.467 117.008 184.420  0.00  0.00    +0.051 A 
ATOM     19  C   LIG    1      166.478 116.180 184.390  0.00  0.00    +0.137 A 
ATOM     20  C   LIG    1      165.832 115.769 184.098  0.00  0.00    +0.026 A 
ATOM     21  C   LIG    1      165.167 116.173 183.832  0.00  0.00    -0.003 A 
ATOM     22  C   LIG    1      165.148 117.006 183.859  0.00  0.00    -0.007 A 
ENDROOT
BRANCH  20  23
ATOM     23  C   LIG    1      165.868 113.702 184.026  0.00  0.00    +0.146 C 
ATOM     24  C   LIG    1      166.124 113.752 183.237  0.00  0.00    +0.022 C 
ATOM     25  C   LIG    1      166.202 114.532 182.985  0.00  0.00    +0.020 C 
ATOM     26  C   LIG    1      166.442 114.806 182.240  0.00  0.00    +0.033 C 
ATOM     27  C   LIG    1      166.660 114.378 181.576  0.00  0.00    +0.141 C 
ATOM     28  O   LIG    1      166.983 114.414 180.584  0.00  0.00    -0.224 OA
ATOM     29  C   LIG    1      166.695 113.560 181.484  0.00  0.00    +0.103 C 
ATOM     30  N   LIG    1      166.519 112.970 182.038  0.00  0.00    -0.270 NA
ATOM     31  C   LIG    1      166.266 113.053 182.814  0.00  0.00    +0.077 C 
ATOM     32  C   LIG    1      166.155 112.316 183.171  0.00  0.00    +0.045 C 
ATOM     33  C   LIG    1      165.901 112.273 183.954  0.00  0.00    -0.005 A 
ATOM     34  C   LIG    1      165.537 111.489 185.087  0.00  0.00    +0.015 A 
ATOM     35  C   LIG    1      165.394 112.179 185.516  0.00  0.00    +0.081 A 
ATOM     36  C   LIG    1      165.139 112.143 186.298  0.00  0.00    +0.019 A 
ATOM     37  C   LIG    1      165.028 111.405 186.655  0.00  0.00    +0.002 A 
ATOM     38  C   LIG    1      165.172 110.715 186.226  0.00  0.00    +0.000 A 
ATOM     39  N   LIG    1      165.504 112.921 185.161  0.00  0.00    -0.249 NA
ATOM     40  C   LIG    1      165.425 110.755 185.446  0.00  0.00    +0.001 A 
ATOM     41  C   LIG    1      166.471 113.933 182.166  0.00  0.00    +0.072 C 
ATOM     42  C   LIG    1      165.757 112.963 184.383  0.00  0.00    +0.068 A 
BRANCH  23  43
ATOM     43  C   LIG    1      165.539 114.230 185.028  0.00  0.00    +0.325 C 
ATOM     44  O   LIG    1      166.093 114.379 185.612  0.00  0.00    -0.249 OA
BRANCH  43  45
ATOM     45  O   LIG    1      164.755 114.447 185.138  0.00  0.00    -0.444 OA
ATOM     46  C   LIG    1      164.475 114.600 185.893  0.00  0.00    +0.256 C 
ENDBRANCH  43  45
ENDBRANCH  23  43
BRANCH  27  47
ATOM     47  C   LIG    1      166.709 115.182 181.412  0.00  0.00    +0.032 C 
ATOM     48  C   LIG    1      166.925 115.631 180.755  0.00  0.00    +0.003 C 
ENDBRANCH  27  47
ENDBRANCH  20  23
BRANCH  10  49
ATOM     49  C   LIG    1      166.197 120.068 184.435  0.00  0.00    +0.350 C 
ATOM     50  O   LIG    1      166.814 120.223 184.029  0.00  0.00    -0.247 OA
BRANCH  49  51
ATOM     51  O   LIG    1      166.198 120.307 185.234  0.00  0.00    -0.443 OA
ATOM     52  C   LIG    1      166.840 120.634 185.507  0.00  0.00    +0.256 C 
ENDBRANCH  49  51
ENDBRANCH  10  49
BRANCH   8  53
ATOM     53  C   LIG    1      163.867 120.326 183.454  0.00  0.00    +0.009 C 
ATOM     54  C   LIG    1      163.170 120.731 183.638  0.00  0.00    +0.000 C 
ENDBRANCH   8  53
BRANCH  19  55
ATOM     55  O   LIG    1      167.151 115.734 184.658  0.00  0.00    -0.472 OA
ATOM     56  C   LIG    1      167.916 116.193 185.031  0.00  0.00    +0.252 C 
ENDBRANCH  19  55
BRANCH   9  57
ATOM     57  O   LIG    1      164.531 120.724 183.754  0.00  0.00    -0.449 OA
BRANCH  57  58
ATOM     58  C   LIG    1      164.770 121.087 183.236  0.00  0.00    +0.318 C 
ATOM     59  C   LIG    1      164.774 121.761 183.266  0.00  0.00    +0.121 C 
ATOM     60  O   LIG    1      165.004 120.769 182.688  0.00  0.00    -0.250 OA
ENDBRANCH  57  58
ENDBRANCH   9  57
TORSDOF 10
ENDMDL
MODEL 2
REMARK VINA RESULT:     -11.4      1.673      6.930
REMARK  Name = 
REMARK                            x       y       z     vdW  Elec       q    Type
REMARK                         _______ _______ _______ _____ _____    ______ ____
ROOT
ATOM      1  C   LIG    1      166.041 115.873 183.614  0.00  0.00    +0.046 C 
ATOM      2  C   LIG    1      165.845 116.603 183.955  0.00  0.00    +0.024 C 
ATOM      3  C   LIG    1      165.254 115.985 185.021  0.00  0.00    +0.072 C 
ATOM      4  N   LIG    1      165.428 115.208 184.722  0.00  0.00    -0.274 NA
ATOM      5  C   LIG    1      165.218 114.510 185.106  0.00  0.00    +0.098 C 
ATOM      6  C   LIG    1      165.415 113.785 184.765  0.00  0.00    -0.013 C 
ATOM      7  C   LIG    1      165.817 113.758 184.046  0.00  0.00    -0.025 C 
ATOM      8  C   LIG    1      166.023 114.453 183.667  0.00  0.00    +0.067 C 
ATOM      9  C   LIG    1      166.430 114.423 182.938  0.00  0.00    +0.212 C 
ATOM     10  C   LIG    1      166.638 115.120 182.557  0.00  0.00    +0.263 C 
ATOM     11  O   LIG    1      166.830 114.395 182.224  0.00  0.00    -0.209 OA
ATOM     12  C   LIG    1      165.832 115.180 183.998  0.00  0.00    +0.087 C 
ATOM     13  C   LIG    1      166.447 115.847 182.888  0.00  0.00    +0.145 C 
ATOM     14  N   LIG    1      166.656 116.545 182.503  0.00  0.00    -0.255 N 
ATOM     15  C   LIG    1      167.059 116.518 181.784  0.00  0.00    +0.307 C 
ATOM     16  O   LIG    1      167.266 117.224 181.402  0.00  0.00    -0.265 OA
ATOM     17  C   LIG    1      166.460 117.270 182.845  0.00  0.00    +0.053 A 
ATOM     18  C   LIG    1      166.679 117.937 182.442  0.00  0.00    +0.051 A 
ATOM     19  C   LIG    1      166.494 118.678 182.763  0.00  0.00    +0.137 A 
ATOM     20  C   LIG    1      166.095 118.731 183.477  0.00  0.00    +0.026 A 
ATOM     21  C   LIG    1      165.874 118.049 183.881  0.00  0.00    -0.003 A 
ATOM     22  C   LIG    1      166.057 117.300 183.566  0.00  0.00    -0.007 A 
ENDROOT
BRANCH  20  23
ATOM     23  C   LIG    1      165.636 120.584 184.271  0.00  0.00    +0.146 C 
ATOM     24  C   LIG    1      166.292 120.512 184.774  0.00  0.00    +0.022 C 
ATOM     25  C   LIG    1      166.694 119.802 184.659  0.00  0.00    +0.020 C 
ATOM     26  C   LIG    1      167.372 119.529 185.053  0.00  0.00    +0.033 C 
ATOM     27  C   LIG    1      167.806 119.890 185.646  0.00  0.00    +0.141 C 
ATOM     28  O   LIG    1      168.625 119.823 186.289  0.00  0.00    -0.224 OA
ATOM     29  C   LIG    1      167.676 120.621 186.002  0.00  0.00    +0.103 C 
ATOM     30  N   LIG    1      167.077 121.171 185.849  0.00  0.00    -0.270 NA
ATOM     31  C   LIG    1      166.463 121.124 185.306  0.00  0.00    +0.077 C 
ATOM     32  C   LIG    1      165.987 121.799 185.337  0.00  0.00    +0.045 C 
ATOM     33  C   LIG    1      165.337 121.865 184.835  0.00  0.00    -0.005 A 
ATOM     34  C   LIG    1      164.215 122.610 184.369  0.00  0.00    +0.015 A 
ATOM     35  C   LIG    1      164.037 122.006 183.836  0.00  0.00    +0.081 A 
ATOM     36  C   LIG    1      163.389 122.066 183.332  0.00  0.00    +0.019 A 
ATOM     37  C   LIG    1      162.913 122.742 183.363  0.00  0.00    +0.002 A 
ATOM     38  C   LIG    1      163.090 123.347 183.896  0.00  0.00    +0.000 A 
ATOM     39  N   LIG    1      164.512 121.327 183.803  0.00  0.00    -0.249 NA
ATOM     40  C   LIG    1      163.737 123.283 184.397  0.00  0.00    +0.001 A 
ATOM     41  C   LIG    1      167.213 120.311 185.417  0.00  0.00    +0.072 C 
ATOM     42  C   LIG    1      165.159 121.261 184.302  0.00  0.00    +0.068 A 
BRANCH  23  43
ATOM     43  C   LIG    1      164.949 120.146 183.418  0.00  0.00    +0.325 C 
ATOM     44  O   LIG    1      165.091 120.345 182.637  0.00  0.00    -0.249 OA
BRANCH  43  45
ATOM     45  O   LIG    1      164.330 119.641 183.609  0.00  0.00    -0.444 OA
ATOM     46  C   LIG    1      163.714 119.531 183.079  0.00  0.00    +0.256 C 
ENDBRANCH  43  45
ENDBRANCH  23  43
BRANCH  27  47
ATOM     47  C   LIG    1      168.142 119.162 185.464  0.00  0.00    +0.032 C 
ATOM     48  C   LIG    1      168.739 118.696 185.792  0.00  0.00    +0.003 C 
ENDBRANCH  27  47
ENDBRANCH  20  23
BRANCH  10  49
ATOM     49  C   LIG    1      167.257 115.087 181.450  0.00  0.00    +0.350 C 
ATOM     50  O   LIG    1      168.002 115.186 181.380  0.00  0.00    -0.247 OA
BRANCH  49  51
ATOM     51  O   LIG    1      166.824 114.949 180.751  0.00  0.00    -0.443 OA
ATOM     52  C   LIG    1      167.212 114.954 180.085  0.00  0.00    +0.256 C 
ENDBRANCH  49  51
ENDBRANCH  10  49
BRANCH   8  53
ATOM     53  C   LIG    1      166.217 113.730 183.330  0.00  0.00    +0.009 C 
ATOM     54  C   LIG    1      165.716 113.084 183.445  0.00  0.00    +0.000 C 
ENDBRANCH   8  53
BRANCH  19  55
ATOM     55  O   LIG    1      166.709 119.401 182.368  0.00  0.00    -0.472 OA
ATOM     56  C   LIG    1      167.462 119.413 181.762  0.00  0.00    +0.252 C 
ENDBRANCH  19  55
BRANCH   9  57
ATOM     57  O   LIG    1      166.622 113.698 182.605  0.00  0.00    -0.449 OA
BRANCH  57  58
ATOM     58  C   LIG    1      167.201 113.390 182.771  0.00  0.00    +0.318 C 
ATOM     59  C   LIG    1      167.315 112.754 182.577  0.00  0.00    +0.121 C 
ATOM     60  O   LIG    1      167.664 113.723 183.133  0.00  0.00    -0.250 OA
ENDBRANCH  57  58
ENDBRANCH   9  57
TORSDOF 10
ENDMDL
MODEL 3
REMARK VINA RESULT:     -11.1     52.078     55.394
REMARK  Name = 
REMARK                            x       y       z     vdW  Elec       q    Type
REMARK                         _______ _______ _______ _____ _____    ______ ____
ROOT
ATOM      1  C   LIG    1      168.569 114.606 128.316  0.00  0.00    +0.046 C 
ATOM      2  C   LIG    1      168.407 115.384 128.554  0.00  0.00    +0.024 C 
ATOM      3  C   LIG    1      169.721 115.734 128.417  0.00  0.00    +0.072 C 
ATOM      4  N   LIG    1      169.948 114.953 128.166  0.00  0.00    -0.274 NA
ATOM      5  C   LIG    1      170.719 114.738 127.972  0.00  0.00    +0.098 C 
ATOM      6  C   LIG    1      170.877 113.963 127.736  0.00  0.00    -0.013 C 
ATOM      7  C   LIG    1      170.268 113.408 127.694  0.00  0.00    -0.025 C 
ATOM      8  C   LIG    1      169.504 113.625 127.887  0.00  0.00    +0.067 C 
ATOM      9  C   LIG    1      168.889 113.061 127.843  0.00  0.00    +0.212 C 
ATOM     10  C   LIG    1      168.121 113.277 128.037  0.00  0.00    +0.263 C 
ATOM     11  O   LIG    1      168.285 112.509 127.801  0.00  0.00    -0.209 OA
ATOM     12  C   LIG    1      169.336 114.394 128.123  0.00  0.00    +0.087 C 
ATOM     13  C   LIG    1      167.953 114.046 128.273  0.00  0.00    +0.145 C 
ATOM     14  N   LIG    1      167.182 114.261 128.467  0.00  0.00    -0.255 N 
ATOM     15  C   LIG    1      166.574 113.706 128.425  0.00  0.00    +0.307 C 
ATOM     16  O   LIG    1      165.799 113.929 128.621  0.00  0.00    -0.265 OA
ATOM     17  C   LIG    1      167.025 115.036 128.704  0.00  0.00    +0.053 A 
ATOM     18  C   LIG    1      166.257 115.215 128.887  0.00  0.00    +0.051 A 
ATOM     19  C   LIG    1      166.072 115.986 129.128  0.00  0.00    +0.137 A 
ATOM     20  C   LIG    1      166.659 116.555 129.177  0.00  0.00    +0.026 A 
ATOM     21  C   LIG    1      167.437 116.367 128.990  0.00  0.00    -0.003 A 
ATOM     22  C   LIG    1      167.632 115.594 128.747  0.00  0.00    -0.007 A 
ENDROOT
BRANCH  20  23
ATOM     23  C   LIG    1      166.189 118.477 129.778  0.00  0.00    +0.146 C 
ATOM     24  C   LIG    1      166.164 118.702 128.980  0.00  0.00    +0.022 C 
ATOM     25  C   LIG    1      166.329 118.072 128.475  0.00  0.00    +0.020 C 
ATOM     26  C   LIG    1      166.358 118.076 127.646  0.00  0.00    +0.033 C 
ATOM     27  C   LIG    1      166.231 118.697 127.127  0.00  0.00    +0.141 C 
ATOM     28  O   LIG    1      166.194 119.005 126.130  0.00  0.00    -0.224 OA
ATOM     29  C   LIG    1      166.042 119.480 127.301  0.00  0.00    +0.103 C 
ATOM     30  N   LIG    1      165.933 119.831 128.043  0.00  0.00    -0.270 NA
ATOM     31  C   LIG    1      165.987 119.489 128.786  0.00  0.00    +0.077 C 
ATOM     32  C   LIG    1      165.836 120.044 129.381  0.00  0.00    +0.045 C 
ATOM     33  C   LIG    1      165.862 119.814 130.172  0.00  0.00    -0.005 A 
ATOM     34  C   LIG    1      165.736 120.145 131.552  0.00  0.00    +0.015 A 
ATOM     35  C   LIG    1      165.911 119.365 131.753  0.00  0.00    +0.081 A 
ATOM     36  C   LIG    1      165.938 119.129 132.542  0.00  0.00    +0.019 A 
ATOM     37  C   LIG    1      165.787 119.685 133.137  0.00  0.00    +0.002 A 
ATOM     38  C   LIG    1      165.612 120.466 132.935  0.00  0.00    +0.000 A 
ATOM     39  N   LIG    1      166.063 118.805 131.160  0.00  0.00    -0.249 NA
ATOM     40  C   LIG    1      165.586 120.696 132.148  0.00  0.00    +0.001 A 
ATOM     41  C   LIG    1      166.157 118.904 127.857  0.00  0.00    +0.072 C 
ATOM     42  C   LIG    1      166.038 119.033 130.373  0.00  0.00    +0.068 A 
BRANCH  23  43
ATOM     43  C   LIG    1      166.353 117.648 130.602  0.00  0.00    +0.325 C 
ATOM     44  O   LIG    1      165.713 117.233 130.896  0.00  0.00    -0.249 OA
BRANCH  43  45
ATOM     45  O   LIG    1      167.110 117.491 130.878  0.00  0.00    -0.444 OA
ATOM     46  C   LIG    1      167.212 117.117 131.601  0.00  0.00    +0.256 C 
ENDBRANCH  43  45
ENDBRANCH  23  43
BRANCH  27  47
ATOM     47  C   LIG    1      166.406 118.015 126.702  0.00  0.00    +0.032 C 
ATOM     48  C   LIG    1      166.468 117.827 125.901  0.00  0.00    +0.003 C 
ENDBRANCH  27  47
ENDBRANCH  20  23
BRANCH  10  49
ATOM     49  C   LIG    1      167.179 112.430 127.974  0.00  0.00    +0.350 C 
ATOM     50  O   LIG    1      166.929 112.032 128.565  0.00  0.00    -0.247 OA
BRANCH  49  51
ATOM     51  O   LIG    1      166.806 112.296 127.241  0.00  0.00    -0.443 OA
ATOM     52  C   LIG    1      166.227 111.788 127.223  0.00  0.00    +0.256 C 
ENDBRANCH  49  51
ENDBRANCH  10  49
BRANCH   8  53
ATOM     53  C   LIG    1      169.663 112.855 127.651  0.00  0.00    +0.009 C 
ATOM     54  C   LIG    1      170.222 112.723 127.058  0.00  0.00    +0.000 C 
ENDBRANCH   8  53
BRANCH  19  55
ATOM     55  O   LIG    1      165.276 116.210 129.328  0.00  0.00    -0.472 OA
ATOM     56  C   LIG    1      164.531 115.684 129.007  0.00  0.00    +0.252 C 
ENDBRANCH  19  55
BRANCH   9  57
ATOM     57  O   LIG    1      169.054 112.293 127.607  0.00  0.00    -0.449 OA
BRANCH  57  58
ATOM     58  C   LIG    1      169.235 111.828 128.063  0.00  0.00    +0.318 C 
ATOM     59  C   LIG    1      169.436 111.216 127.864  0.00  0.00    +0.121 C 
ATOM     60  O   LIG    1      169.212 111.981 128.721  0.00  0.00    -0.250 OA
ENDBRANCH  57  58
ENDBRANCH   9  57
TORSDOF 10
ENDMDL
MODEL 4
REMARK VINA RESULT:     -11.1     12.604     15.155
REMARK  Name = 
REMARK                            x       y       z     vdW  Elec       q    Type
REMARK                         _______ _______ _______ _____ _____    ______ ____
ROOT
ATOM      1  C   LIG    1      177.628 110.970 186.759  0.00  0.00    +0.046 C 
ATOM      2  C   LIG    1      177.280 110.899 187.509  0.00  0.00    +0.024 C 
ATOM      3  C   LIG    1      176.045 111.188 186.999  0.00  0.00    +0.072 C 
ATOM      4  N   LIG    1      176.345 111.274 186.207  0.00  0.00    -0.274 NA
ATOM      5  C   LIG    1      175.876 111.462 185.556  0.00  0.00    +0.098 C 
ATOM      6  C   LIG    1      176.226 111.532 184.811  0.00  0.00    -0.013 C 
ATOM      7  C   LIG    1      177.036 111.415 184.719  0.00  0.00    -0.025 C 
ATOM      8  C   LIG    1      177.499 111.229 185.368  0.00  0.00    +0.067 C 
ATOM      9  C   LIG    1      178.320 111.111 185.272  0.00  0.00    +0.212 C 
ATOM     10  C   LIG    1      178.785 110.924 185.922  0.00  0.00    +0.263 C 
ATOM     11  O   LIG    1      179.126 110.996 185.178  0.00  0.00    -0.209 OA
ATOM     12  C   LIG    1      177.161 111.157 186.113  0.00  0.00    +0.087 C 
ATOM     13  C   LIG    1      178.447 110.852 186.667  0.00  0.00    +0.145 C 
ATOM     14  N   LIG    1      178.916 110.664 187.318  0.00  0.00    -0.255 N 
ATOM     15  C   LIG    1      179.727 110.548 187.226  0.00  0.00    +0.307 C 
ATOM     16  O   LIG    1      180.193 110.359 187.885  0.00  0.00    -0.265 OA
ATOM     17  C   LIG    1      178.566 110.594 188.062  0.00  0.00    +0.053 A 
ATOM     18  C   LIG    1      179.054 110.409 188.681  0.00  0.00    +0.051 A 
ATOM     19  C   LIG    1      178.728 110.333 189.439  0.00  0.00    +0.137 A 
ATOM     20  C   LIG    1      177.924 110.444 189.556  0.00  0.00    +0.026 A 
ATOM     21  C   LIG    1      177.434 110.632 188.924  0.00  0.00    -0.003 A 
ATOM     22  C   LIG    1      177.754 110.711 188.158  0.00  0.00    -0.007 A 
ENDROOT
BRANCH  20  23
ATOM     23  C   LIG    1      177.119 110.252 191.452  0.00  0.00    +0.146 C 
ATOM     24  C   LIG    1      177.145 111.078 191.527  0.00  0.00    +0.022 C 
ATOM     25  C   LIG    1      177.451 111.442 190.854  0.00  0.00    +0.020 C 
ATOM     26  C   LIG    1      177.564 112.252 190.719  0.00  0.00    +0.033 C 
ATOM     27  C   LIG    1      177.402 112.887 191.211  0.00  0.00    +0.141 C 
ATOM     28  O   LIG    1      177.423 113.923 191.330  0.00  0.00    -0.224 OA
ATOM     29  C   LIG    1      177.084 112.877 191.971  0.00  0.00    +0.103 C 
ATOM     30  N   LIG    1      176.849 112.225 192.424  0.00  0.00    -0.270 NA
ATOM     31  C   LIG    1      176.876 111.428 192.229  0.00  0.00    +0.077 C 
ATOM     32  C   LIG    1      176.585 110.962 192.847  0.00  0.00    +0.045 C 
ATOM     33  C   LIG    1      176.563 110.141 192.765  0.00  0.00    -0.005 A 
ATOM     34  C   LIG    1      176.248 108.861 193.307  0.00  0.00    +0.015 A 
ATOM     35  C   LIG    1      176.514 108.505 192.612  0.00  0.00    +0.081 A 
ATOM     36  C   LIG    1      176.494 107.686 192.525  0.00  0.00    +0.019 A 
ATOM     37  C   LIG    1      176.203 107.220 193.144  0.00  0.00    +0.002 A 
ATOM     38  C   LIG    1      175.937 107.576 193.839  0.00  0.00    +0.000 A 
ATOM     39  N   LIG    1      176.806 108.969 191.990  0.00  0.00    -0.249 NA
ATOM     40  C   LIG    1      175.959 108.393 193.922  0.00  0.00    +0.001 A 
ATOM     41  C   LIG    1      177.224 112.216 191.526  0.00  0.00    +0.072 C 
ATOM     42  C   LIG    1      176.828 109.785 192.071  0.00  0.00    +0.068 A 
BRANCH  23  43
ATOM     43  C   LIG    1      177.317 109.277 190.817  0.00  0.00    +0.325 C 
ATOM     44  O   LIG    1      178.019 108.866 190.908  0.00  0.00    -0.249 OA
BRANCH  43  45
ATOM     45  O   LIG    1      176.751 109.014 190.284  0.00  0.00    -0.444 OA
ATOM     46  C   LIG    1      176.749 108.230 190.044  0.00  0.00    +0.256 C 
ENDBRANCH  43  45
ENDBRANCH  23  43
BRANCH  27  47
ATOM     47  C   LIG    1      177.717 113.162 190.502  0.00  0.00    +0.032 C 
ATOM     48  C   LIG    1      177.745 113.893 190.122  0.00  0.00    +0.003 C 
ENDBRANCH  27  47
ENDBRANCH  20  23
BRANCH  10  49
ATOM     49  C   LIG    1      180.034 110.743 185.789  0.00  0.00    +0.350 C 
ATOM     50  O   LIG    1      180.353 110.068 185.680  0.00  0.00    -0.247 OA
BRANCH  49  51
ATOM     51  O   LIG    1      180.542 111.403 185.822  0.00  0.00    -0.443 OA
ATOM     52  C   LIG    1      181.297 111.276 185.734  0.00  0.00    +0.256 C 
ENDBRANCH  49  51
ENDBRANCH  10  49
BRANCH   8  53
ATOM     53  C   LIG    1      177.844 111.300 184.626  0.00  0.00    +0.009 C 
ATOM     54  C   LIG    1      177.522 111.830 184.081  0.00  0.00    +0.000 C 
ENDBRANCH   8  53
BRANCH  19  55
ATOM     55  O   LIG    1      179.210 110.139 190.113  0.00  0.00    -0.472 OA
ATOM     56  C   LIG    1      180.166 110.283 190.080  0.00  0.00    +0.252 C 
ENDBRANCH  19  55
BRANCH   9  57
ATOM     57  O   LIG    1      178.660 111.183 184.529  0.00  0.00    -0.449 OA
BRANCH  57  58
ATOM     58  C   LIG    1      178.697 110.647 184.118  0.00  0.00    +0.318 C 
ATOM     59  C   LIG    1      178.915 110.719 183.484  0.00  0.00    +0.121 C 
ATOM     60  O   LIG    1      178.513 110.039 184.348  0.00  0.00    -0.250 OA
ENDBRANCH  57  58
ENDBRANCH   9  57
TORSDOF 10
ENDMDL
MODEL 5
REMARK VINA RESULT:     -10.9     12.500     15.151
REMARK  Name = 
REMARK                            x       y       z     vdW  Elec       q    Type
REMARK                         _______ _______ _______ _____ _____    ______ ____
ROOT
ATOM      1  C   LIG    1      177.714 111.421 186.618  0.00  0.00    +0.046 C 
ATOM      2  C   LIG    1      177.385 111.579 187.363  0.00  0.00    +0.024 C 
ATOM      3  C   LIG    1      176.153 111.792 186.812  0.00  0.00    +0.072 C 
ATOM      4  N   LIG    1      176.432 111.641 186.022  0.00  0.00    -0.274 NA
ATOM      5  C   LIG    1      175.955 111.672 185.351  0.00  0.00    +0.098 C 
ATOM      6  C   LIG    1      176.285 111.515 184.611  0.00  0.00    -0.013 C 
ATOM      7  C   LIG    1      177.085 111.328 184.543  0.00  0.00    -0.025 C 
ATOM      8  C   LIG    1      177.556 111.298 185.211  0.00  0.00    +0.067 C 
ATOM      9  C   LIG    1      178.366 111.109 185.139  0.00  0.00    +0.212 C 
ATOM     10  C   LIG    1      178.840 111.078 185.808  0.00  0.00    +0.263 C 
ATOM     11  O   LIG    1      179.161 110.923 185.069  0.00  0.00    -0.209 OA
ATOM     12  C   LIG    1      177.237 111.453 185.952  0.00  0.00    +0.087 C 
ATOM     13  C   LIG    1      178.522 111.233 186.550  0.00  0.00    +0.145 C 
ATOM     14  N   LIG    1      178.999 111.201 187.220  0.00  0.00    -0.255 N 
ATOM     15  C   LIG    1      179.799 111.015 187.152  0.00  0.00    +0.307 C 
ATOM     16  O   LIG    1      180.274 110.985 187.831  0.00  0.00    -0.265 OA
ATOM     17  C   LIG    1      178.669 111.359 187.960  0.00  0.00    +0.053 A 
ATOM     18  C   LIG    1      179.165 111.320 188.599  0.00  0.00    +0.051 A 
ATOM     19  C   LIG    1      178.859 111.473 189.354  0.00  0.00    +0.137 A 
ATOM     20  C   LIG    1      178.066 111.661 189.448  0.00  0.00    +0.026 A 
ATOM     21  C   LIG    1      177.568 111.699 188.795  0.00  0.00    -0.003 A 
ATOM     22  C   LIG    1      177.868 111.546 188.033  0.00  0.00    -0.007 A 
ENDROOT
BRANCH  20  23
ATOM     23  C   LIG    1      177.311 112.042 191.334  0.00  0.00    +0.146 C 
ATOM     24  C   LIG    1      177.114 111.239 191.399  0.00  0.00    +0.022 C 
ATOM     25  C   LIG    1      177.324 110.813 190.726  0.00  0.00    +0.020 C 
ATOM     26  C   LIG    1      177.219 110.003 190.581  0.00  0.00    +0.033 C 
ATOM     27  C   LIG    1      176.887 109.430 191.062  0.00  0.00    +0.141 C 
ATOM     28  O   LIG    1      176.630 108.423 191.168  0.00  0.00    -0.224 OA
ATOM     29  C   LIG    1      176.570 109.517 191.818  0.00  0.00    +0.103 C 
ATOM     30  N   LIG    1      176.510 110.203 192.276  0.00  0.00    -0.270 NA
ATOM     31  C   LIG    1      176.751 110.966 192.093  0.00  0.00    +0.077 C 
ATOM     32  C   LIG    1      176.585 111.487 192.713  0.00  0.00    +0.045 C 
ATOM     33  C   LIG    1      176.782 112.284 192.642  0.00  0.00    -0.005 A 
ATOM     34  C   LIG    1      176.810 113.597 193.197  0.00  0.00    +0.015 A 
ATOM     35  C   LIG    1      177.172 113.877 192.510  0.00  0.00    +0.081 A 
ATOM     36  C   LIG    1      177.372 114.672 192.434  0.00  0.00    +0.019 A 
ATOM     37  C   LIG    1      177.205 115.193 193.055  0.00  0.00    +0.002 A 
ATOM     38  C   LIG    1      176.843 114.913 193.741  0.00  0.00    +0.000 A 
ATOM     39  N   LIG    1      177.340 113.357 191.886  0.00  0.00    -0.249 NA
ATOM     40  C   LIG    1      176.646 114.119 193.814  0.00  0.00    +0.001 A 
ATOM     41  C   LIG    1      176.888 110.121 191.384  0.00  0.00    +0.072 C 
ATOM     42  C   LIG    1      177.144 112.564 191.956  0.00  0.00    +0.068 A 
BRANCH  23  43
ATOM     43  C   LIG    1      177.771 112.935 190.715  0.00  0.00    +0.325 C 
ATOM     44  O   LIG    1      178.557 113.139 190.816  0.00  0.00    -0.249 OA
BRANCH  43  45
ATOM     45  O   LIG    1      177.301 113.350 190.185  0.00  0.00    -0.444 OA
ATOM     46  C   LIG    1      177.519 114.105 189.950  0.00  0.00    +0.256 C 
ENDBRANCH  43  45
ENDBRANCH  23  43
BRANCH  27  47
ATOM     47  C   LIG    1      177.129 109.088 190.354  0.00  0.00    +0.032 C 
ATOM     48  C   LIG    1      177.099 108.328 190.034  0.00  0.00    +0.003 C 
ENDBRANCH  27  47
ENDBRANCH  20  23
BRANCH  10  49
ATOM     49  C   LIG    1      180.072 110.792 185.712  0.00  0.00    +0.350 C 
ATOM     50  O   LIG    1      180.354 110.099 185.814  0.00  0.00    -0.247 OA
BRANCH  49  51
ATOM     51  O   LIG    1      180.612 111.398 185.525  0.00  0.00    -0.443 OA
ATOM     52  C   LIG    1      181.357 111.207 185.470  0.00  0.00    +0.256 C 
ENDBRANCH  49  51
ENDBRANCH  10  49
BRANCH   8  53
ATOM     53  C   LIG    1      177.881 111.142 184.473  0.00  0.00    +0.009 C 
ATOM     54  C   LIG    1      177.623 111.576 183.819  0.00  0.00    +0.000 C 
ENDBRANCH   8  53
BRANCH  19  55
ATOM     55  O   LIG    1      179.350 111.441 190.048  0.00  0.00    -0.472 OA
ATOM     56  C   LIG    1      180.270 111.155 189.975  0.00  0.00    +0.252 C 
ENDBRANCH  19  55
BRANCH   9  57
ATOM     57  O   LIG    1      178.687 110.954 184.400  0.00  0.00    -0.449 OA
BRANCH  57  58
ATOM     58  C   LIG    1      178.660 110.330 184.142  0.00  0.00    +0.318 C 
ATOM     59  C   LIG    1      178.816 110.223 183.494  0.00  0.00    +0.121 C 
ATOM     60  O   LIG    1      178.477 109.814 184.536  0.00  0.00    -0.250 OA
ENDBRANCH  57  58
ENDBRANCH   9  57
TORSDOF 10
ENDMDL
MODEL 6
REMARK VINA RESULT:     -10.4     53.493     56.204
REMARK  Name = 
REMARK                            x       y       z     vdW  Elec       q    Type
REMARK                         _______ _______ _______ _____ _____    ______ ____
ROOT
ATOM      1  C   LIG    1      195.100 137.145 138.418  0.00  0.00    +0.046 C 
ATOM      2  C   LIG    1      195.046 136.861 139.195  0.00  0.00    +0.024 C 
ATOM      3  C   LIG    1      196.149 137.575 139.569  0.00  0.00    +0.072 C 
ATOM      4  N   LIG    1      196.256 137.899 138.790  0.00  0.00    -0.274 NA
ATOM      5  C   LIG    1      196.863 138.420 138.588  0.00  0.00    +0.098 C 
ATOM      6  C   LIG    1      196.914 138.700 137.813  0.00  0.00    -0.013 C 
ATOM      7  C   LIG    1      196.365 138.463 137.247  0.00  0.00    -0.025 C 
ATOM      8  C   LIG    1      195.764 137.947 137.451  0.00  0.00    +0.067 C 
ATOM      9  C   LIG    1      195.209 137.708 136.875  0.00  0.00    +0.212 C 
ATOM     10  C   LIG    1      194.605 137.190 137.078  0.00  0.00    +0.263 C 
ATOM     11  O   LIG    1      194.663 137.474 136.310  0.00  0.00    -0.209 OA
ATOM     12  C   LIG    1      195.704 137.661 138.219  0.00  0.00    +0.087 C 
ATOM     13  C   LIG    1      194.545 136.905 137.846  0.00  0.00    +0.145 C 
ATOM     14  N   LIG    1      193.938 136.385 138.048  0.00  0.00    -0.255 N 
ATOM     15  C   LIG    1      193.389 136.148 137.482  0.00  0.00    +0.307 C 
ATOM     16  O   LIG    1      192.781 135.624 137.691  0.00  0.00    -0.265 OA
ATOM     17  C   LIG    1      193.887 136.104 138.823  0.00  0.00    +0.053 A 
ATOM     18  C   LIG    1      193.280 135.595 138.989  0.00  0.00    +0.051 A 
ATOM     19  C   LIG    1      193.206 135.298 139.759  0.00  0.00    +0.137 A 
ATOM     20  C   LIG    1      193.740 135.519 140.340  0.00  0.00    +0.026 A 
ATOM     21  C   LIG    1      194.354 136.037 140.165  0.00  0.00    -0.003 A 
ATOM     22  C   LIG    1      194.436 136.340 139.393  0.00  0.00    -0.007 A 
ENDROOT
BRANCH  20  23
ATOM     23  C   LIG    1      193.547 134.774 142.260  0.00  0.00    +0.146 C 
ATOM     24  C   LIG    1      193.020 135.393 142.428  0.00  0.00    +0.022 C 
ATOM     25  C   LIG    1      192.904 135.887 141.779  0.00  0.00    +0.020 C 
ATOM     26  C   LIG    1      192.422 136.560 141.729  0.00  0.00    +0.033 C 
ATOM     27  C   LIG    1      191.946 136.899 142.303  0.00  0.00    +0.141 C 
ATOM     28  O   LIG    1      191.281 137.668 142.540  0.00  0.00    -0.224 OA
ATOM     29  C   LIG    1      191.826 136.653 143.080  0.00  0.00    +0.103 C 
ATOM     30  N   LIG    1      192.158 136.003 143.472  0.00  0.00    -0.270 NA
ATOM     31  C   LIG    1      192.686 135.445 143.185  0.00  0.00    +0.077 C 
ATOM     32  C   LIG    1      192.874 134.888 143.766  0.00  0.00    +0.045 C 
ATOM     33  C   LIG    1      193.398 134.275 143.593  0.00  0.00    -0.005 A 
ATOM     34  C   LIG    1      194.106 133.110 144.007  0.00  0.00    +0.015 A 
ATOM     35  C   LIG    1      194.443 133.050 143.256  0.00  0.00    +0.081 A 
ATOM     36  C   LIG    1      194.967 132.441 143.077  0.00  0.00    +0.019 A 
ATOM     37  C   LIG    1      195.155 131.884 143.659  0.00  0.00    +0.002 A 
ATOM     38  C   LIG    1      194.818 131.943 144.409  0.00  0.00    +0.000 A 
ATOM     39  N   LIG    1      194.256 133.607 142.670  0.00  0.00    -0.249 NA
ATOM     40  C   LIG    1      194.296 132.552 144.584  0.00  0.00    +0.001 A 
ATOM     41  C   LIG    1      192.311 136.278 142.553  0.00  0.00    +0.072 C 
ATOM     42  C   LIG    1      193.735 134.216 142.842  0.00  0.00    +0.068 A 
BRANCH  23  43
ATOM     43  C   LIG    1      194.258 134.216 141.502  0.00  0.00    +0.325 C 
ATOM     44  O   LIG    1      193.967 133.602 141.046  0.00  0.00    -0.249 OA
BRANCH  43  45
ATOM     45  O   LIG    1      195.044 134.444 141.434  0.00  0.00    -0.444 OA
ATOM     46  C   LIG    1      195.590 133.933 141.099  0.00  0.00    +0.256 C 
ENDBRANCH  43  45
ENDBRANCH  23  43
BRANCH  27  47
ATOM     47  C   LIG    1      191.892 137.335 141.608  0.00  0.00    +0.032 C 
ATOM     48  C   LIG    1      191.358 137.887 141.307  0.00  0.00    +0.003 C 
ENDBRANCH  27  47
ENDBRANCH  20  23
BRANCH  10  49
ATOM     49  C   LIG    1      193.755 136.820 136.212  0.00  0.00    +0.350 C 
ATOM     50  O   LIG    1      193.076 137.138 136.125  0.00  0.00    -0.247 OA
BRANCH  49  51
ATOM     51  O   LIG    1      193.948 136.189 135.703  0.00  0.00    -0.443 OA
ATOM     52  C   LIG    1      193.444 136.012 135.148  0.00  0.00    +0.256 C 
ENDBRANCH  49  51
ENDBRANCH  10  49
BRANCH   8  53
ATOM     53  C   LIG    1      195.818 138.228 136.681  0.00  0.00    +0.009 C 
ATOM     54  C   LIG    1      196.564 138.334 136.342  0.00  0.00    +0.000 C 
ENDBRANCH   8  53
BRANCH  19  55
ATOM     55  O   LIG    1      192.580 134.761 139.971  0.00  0.00    -0.472 OA
ATOM     56  C   LIG    1      191.965 134.447 139.294  0.00  0.00    +0.252 C 
ENDBRANCH  19  55
BRANCH   9  57
ATOM     57  O   LIG    1      195.266 137.992 136.107  0.00  0.00    -0.449 OA
BRANCH  57  58
ATOM     58  C   LIG    1      194.968 138.574 135.936  0.00  0.00    +0.318 C 
ATOM     59  C   LIG    1      195.073 138.843 135.326  0.00  0.00    +0.121 C 
ATOM     60  O   LIG    1      194.564 138.884 136.379  0.00  0.00    -0.250 OA
ENDBRANCH  57  58
ENDBRANCH   9  57
TORSDOF 10
ENDMDL
MODEL 7
REMARK VINA RESULT:     -10.4     52.694     54.443
REMARK  Name = 
REMARK                            x       y       z     vdW  Elec       q    Type
REMARK                         _______ _______ _______ _____ _____    ______ ____
ROOT
ATOM      1  C   LIG    1      196.648 134.028 143.353  0.00  0.00    +0.046 C 
ATOM      2  C   LIG    1      196.167 134.595 142.985  0.00  0.00    +0.024 C 
ATOM      3  C   LIG    1      197.072 135.584 143.252  0.00  0.00    +0.072 C 
ATOM      4  N   LIG    1      197.607 135.049 143.643  0.00  0.00    -0.274 NA
ATOM      5  C   LIG    1      198.327 135.277 143.972  0.00  0.00    +0.098 C 
ATOM      6  C   LIG    1      198.802 134.710 144.337  0.00  0.00    -0.013 C 
ATOM      7  C   LIG    1      198.560 133.923 144.374  0.00  0.00    -0.025 C 
ATOM      8  C   LIG    1      197.844 133.701 144.046  0.00  0.00    +0.067 C 
ATOM      9  C   LIG    1      197.601 132.903 144.084  0.00  0.00    +0.212 C 
ATOM     10  C   LIG    1      196.883 132.677 143.756  0.00  0.00    +0.263 C 
ATOM     11  O   LIG    1      197.362 132.120 144.121  0.00  0.00    -0.209 OA
ATOM     12  C   LIG    1      197.363 134.257 143.680  0.00  0.00    +0.087 C 
ATOM     13  C   LIG    1      196.402 133.233 143.389  0.00  0.00    +0.145 C 
ATOM     14  N   LIG    1      195.682 133.005 143.060  0.00  0.00    -0.255 N 
ATOM     15  C   LIG    1      195.440 132.218 143.097  0.00  0.00    +0.307 C 
ATOM     16  O   LIG    1      194.714 131.995 142.764  0.00  0.00    -0.265 OA
ATOM     17  C   LIG    1      195.206 133.572 142.694  0.00  0.00    +0.053 A 
ATOM     18  C   LIG    1      194.505 133.316 142.381  0.00  0.00    +0.051 A 
ATOM     19  C   LIG    1      194.009 133.865 142.008  0.00  0.00    +0.137 A 
ATOM     20  C   LIG    1      194.228 134.653 141.959  0.00  0.00    +0.026 A 
ATOM     21  C   LIG    1      194.941 134.907 142.280  0.00  0.00    -0.003 A 
ATOM     22  C   LIG    1      195.446 134.362 142.656  0.00  0.00    -0.007 A 
ENDROOT
BRANCH  20  23
ATOM     23  C   LIG    1      192.983 136.016 141.027  0.00  0.00    +0.146 C 
ATOM     24  C   LIG    1      193.402 135.890 140.321  0.00  0.00    +0.022 C 
ATOM     25  C   LIG    1      194.010 135.342 140.416  0.00  0.00    +0.020 C 
ATOM     26  C   LIG    1      194.547 135.071 139.844  0.00  0.00    +0.033 C 
ATOM     27  C   LIG    1      194.608 135.277 139.054  0.00  0.00    +0.141 C 
ATOM     28  O   LIG    1      195.119 135.135 138.154  0.00  0.00    -0.224 OA
ATOM     29  C   LIG    1      194.147 135.808 138.626  0.00  0.00    +0.103 C 
ATOM     30  N   LIG    1      193.509 136.266 138.889  0.00  0.00    -0.270 NA
ATOM     31  C   LIG    1      193.178 136.303 139.638  0.00  0.00    +0.077 C 
ATOM     32  C   LIG    1      192.545 136.835 139.658  0.00  0.00    +0.045 C 
ATOM     33  C   LIG    1      192.133 136.956 140.362  0.00  0.00    -0.005 A 
ATOM     34  C   LIG    1      191.089 137.612 141.077  0.00  0.00    +0.015 A 
ATOM     35  C   LIG    1      191.305 137.205 141.761  0.00  0.00    +0.081 A 
ATOM     36  C   LIG    1      190.898 137.322 142.467  0.00  0.00    +0.019 A 
ATOM     37  C   LIG    1      190.265 137.854 142.486  0.00  0.00    +0.002 A 
ATOM     38  C   LIG    1      190.048 138.261 141.802  0.00  0.00    +0.000 A 
ATOM     39  N   LIG    1      191.939 136.670 141.746  0.00  0.00    -0.249 NA
ATOM     40  C   LIG    1      190.457 138.142 141.100  0.00  0.00    +0.001 A 
ATOM     41  C   LIG    1      194.042 135.642 139.410  0.00  0.00    +0.072 C 
ATOM     42  C   LIG    1      192.349 136.549 141.046  0.00  0.00    +0.068 A 
BRANCH  23  43
ATOM     43  C   LIG    1      192.817 135.785 142.172  0.00  0.00    +0.325 C 
ATOM     44  O   LIG    1      192.294 135.198 142.397  0.00  0.00    -0.249 OA
BRANCH  43  45
ATOM     45  O   LIG    1      193.225 136.214 142.740  0.00  0.00    -0.444 OA
ATOM     46  C   LIG    1      192.959 136.224 143.515  0.00  0.00    +0.256 C 
ENDBRANCH  43  45
ENDBRANCH  23  43
BRANCH  27  47
ATOM     47  C   LIG    1      195.187 134.723 139.239  0.00  0.00    +0.032 C 
ATOM     48  C   LIG    1      195.769 134.323 138.813  0.00  0.00    +0.003 C 
ENDBRANCH  27  47
ENDBRANCH  20  23
BRANCH  10  49
ATOM     49  C   LIG    1      196.503 131.468 143.807  0.00  0.00    +0.350 C 
ATOM     50  O   LIG    1      196.040 131.194 144.337  0.00  0.00    -0.247 OA
BRANCH  49  51
ATOM     51  O   LIG    1      196.774 130.936 143.226  0.00  0.00    -0.443 OA
ATOM     52  C   LIG    1      196.519 130.210 143.261  0.00  0.00    +0.256 C 
ENDBRANCH  49  51
ENDBRANCH  10  49
BRANCH   8  53
ATOM     53  C   LIG    1      198.320 133.139 144.411  0.00  0.00    +0.009 C 
ATOM     54  C   LIG    1      199.140 133.187 144.323  0.00  0.00    +0.000 C 
ENDBRANCH   8  53
BRANCH  19  55
ATOM     55  O   LIG    1      193.265 133.632 141.668  0.00  0.00    -0.472 OA
ATOM     56  C   LIG    1      193.125 132.715 141.394  0.00  0.00    +0.252 C 
ENDBRANCH  19  55
BRANCH   9  57
ATOM     57  O   LIG    1      198.080 132.345 144.450  0.00  0.00    -0.449 OA
BRANCH  57  58
ATOM     58  C   LIG    1      198.032 132.240 145.116  0.00  0.00    +0.318 C 
ATOM     59  C   LIG    1      198.505 131.883 145.438  0.00  0.00    +0.121 C 
ATOM     60  O   LIG    1      197.507 132.494 145.456  0.00  0.00    -0.250 OA
ENDBRANCH  57  58
ENDBRANCH   9  57
TORSDOF 10
ENDMDL
MODEL 8
REMARK VINA RESULT:     -10.3     51.998     55.371
REMARK  Name = 
REMARK                            x       y       z     vdW  Elec       q    Type
REMARK                         _______ _______ _______ _____ _____    ______ ____
ROOT
ATOM      1  C   LIG    1      168.541 114.611 128.228  0.00  0.00    +0.046 C 
ATOM      2  C   LIG    1      168.385 115.397 128.444  0.00  0.00    +0.024 C 
ATOM      3  C   LIG    1      169.695 115.742 128.259  0.00  0.00    +0.072 C 
ATOM      4  N   LIG    1      169.915 114.953 128.028  0.00  0.00    -0.274 NA
ATOM      5  C   LIG    1      170.681 114.731 127.820  0.00  0.00    +0.098 C 
ATOM      6  C   LIG    1      170.832 113.949 127.605  0.00  0.00    -0.013 C 
ATOM      7  C   LIG    1      170.223 113.394 127.598  0.00  0.00    -0.025 C 
ATOM      8  C   LIG    1      169.464 113.617 127.806  0.00  0.00    +0.067 C 
ATOM      9  C   LIG    1      168.849 113.052 127.798  0.00  0.00    +0.212 C 
ATOM     10  C   LIG    1      168.086 113.275 128.006  0.00  0.00    +0.263 C 
ATOM     11  O   LIG    1      168.244 112.499 127.791  0.00  0.00    -0.209 OA
ATOM     12  C   LIG    1      169.303 114.393 128.021  0.00  0.00    +0.087 C 
ATOM     13  C   LIG    1      167.925 114.051 128.221  0.00  0.00    +0.145 C 
ATOM     14  N   LIG    1      167.159 114.272 128.430  0.00  0.00    -0.255 N 
ATOM     15  C   LIG    1      166.550 113.717 128.423  0.00  0.00    +0.307 C 
ATOM     16  O   LIG    1      165.782 113.946 128.634  0.00  0.00    -0.265 OA
ATOM     17  C   LIG    1      167.008 115.055 128.645  0.00  0.00    +0.053 A 
ATOM     18  C   LIG    1      166.246 115.240 128.844  0.00  0.00    +0.051 A 
ATOM     19  C   LIG    1      166.067 116.019 129.063  0.00  0.00    +0.137 A 
ATOM     20  C   LIG    1      166.655 116.589 129.078  0.00  0.00    +0.026 A 
ATOM     21  C   LIG    1      167.428 116.395 128.874  0.00  0.00    -0.003 A 
ATOM     22  C   LIG    1      167.616 115.614 128.652  0.00  0.00    -0.007 A 
ENDROOT
BRANCH  20  23
ATOM     23  C   LIG    1      166.201 118.530 129.627  0.00  0.00    +0.146 C 
ATOM     24  C   LIG    1      166.393 118.335 130.411  0.00  0.00    +0.022 C 
ATOM     25  C   LIG    1      166.630 117.549 130.485  0.00  0.00    +0.020 C 
ATOM     26  C   LIG    1      166.864 117.150 131.174  0.00  0.00    +0.033 C 
ATOM     27  C   LIG    1      166.919 117.430 131.941  0.00  0.00    +0.141 C 
ATOM     28  O   LIG    1      167.156 117.210 132.934  0.00  0.00    -0.224 OA
ATOM     29  C   LIG    1      166.753 118.187 132.223  0.00  0.00    +0.103 C 
ATOM     30  N   LIG    1      166.491 118.849 131.801  0.00  0.00    -0.270 NA
ATOM     31  C   LIG    1      166.332 118.916 130.999  0.00  0.00    +0.077 C 
ATOM     32  C   LIG    1      166.081 119.681 130.809  0.00  0.00    +0.045 C 
ATOM     33  C   LIG    1      165.891 119.869 130.029  0.00  0.00    -0.005 A 
ATOM     34  C   LIG    1      165.451 120.824 129.068  0.00  0.00    +0.015 A 
ATOM     35  C   LIG    1      165.510 120.252 128.476  0.00  0.00    +0.081 A 
ATOM     36  C   LIG    1      165.321 120.433 127.695  0.00  0.00    +0.019 A 
ATOM     37  C   LIG    1      165.071 121.199 127.506  0.00  0.00    +0.002 A 
ATOM     38  C   LIG    1      165.012 121.771 128.098  0.00  0.00    +0.000 A 
ATOM     39  N   LIG    1      165.761 119.484 128.662  0.00  0.00    -0.249 NA
ATOM     40  C   LIG    1      165.201 121.586 128.875  0.00  0.00    +0.001 A 
ATOM     41  C   LIG    1      166.681 117.963 131.449  0.00  0.00    +0.072 C 
ATOM     42  C   LIG    1      165.950 119.297 129.438  0.00  0.00    +0.068 A 
BRANCH  23  43
ATOM     43  C   LIG    1      166.090 118.220 128.494  0.00  0.00    +0.325 C 
ATOM     44  O   LIG    1      165.370 117.950 128.214  0.00  0.00    -0.249 OA
BRANCH  43  45
ATOM     45  O   LIG    1      166.736 118.274 127.990  0.00  0.00    -0.444 OA
ATOM     46  C   LIG    1      166.620 118.287 127.178  0.00  0.00    +0.256 C 
ENDBRANCH  43  45
ENDBRANCH  23  43
BRANCH  27  47
ATOM     47  C   LIG    1      167.140 116.638 131.921  0.00  0.00    +0.032 C 
ATOM     48  C   LIG    1      167.215 116.040 132.484  0.00  0.00    +0.003 C 
ENDBRANCH  27  47
ENDBRANCH  20  23
BRANCH  10  49
ATOM     49  C   LIG    1      167.143 112.426 127.999  0.00  0.00    +0.350 C 
ATOM     50  O   LIG    1      166.910 112.049 128.609  0.00  0.00    -0.247 OA
BRANCH  49  51
ATOM     51  O   LIG    1      166.751 112.268 127.281  0.00  0.00    -0.443 OA
ATOM     52  C   LIG    1      166.173 111.758 127.296  0.00  0.00    +0.256 C 
ENDBRANCH  49  51
ENDBRANCH  10  49
BRANCH   8  53
ATOM     53  C   LIG    1      169.617 112.839 127.591  0.00  0.00    +0.009 C 
ATOM     54  C   LIG    1      170.167 112.687 126.994  0.00  0.00    +0.000 C 
ENDBRANCH   8  53
BRANCH  19  55
ATOM     55  O   LIG    1      165.277 116.250 129.279  0.00  0.00    -0.472 OA
ATOM     56  C   LIG    1      164.591 115.577 129.392  0.00  0.00    +0.252 C 
ENDBRANCH  19  55
BRANCH   9  57
ATOM     57  O   LIG    1      169.007 112.276 127.583  0.00  0.00    -0.449 OA
BRANCH  57  58
ATOM     58  C   LIG    1      169.207 111.829 128.049  0.00  0.00    +0.318 C 
ATOM     59  C   LIG    1      169.409 111.212 127.862  0.00  0.00    +0.121 C 
ATOM     60  O   LIG    1      169.204 112.003 128.701  0.00  0.00    -0.250 OA
ENDBRANCH  57  58
ENDBRANCH   9  57
TORSDOF 10
ENDMDL
MODEL 9
REMARK VINA RESULT:     -10.2     25.920     28.309
REMARK  Name = 
REMARK                            x       y       z     vdW  Elec       q    Type
REMARK                         _______ _______ _______ _____ _____    ______ ____
ROOT
ATOM      1  C   LIG    1      167.413 136.158 162.587  0.00  0.00    +0.046 C 
ATOM      2  C   LIG    1      168.232 136.112 162.710  0.00  0.00    +0.024 C 
ATOM      3  C   LIG    1      168.439 137.247 161.977  0.00  0.00    +0.072 C 
ATOM      4  N   LIG    1      167.609 137.347 161.817  0.00  0.00    -0.274 NA
ATOM      5  C   LIG    1      167.298 137.965 161.370  0.00  0.00    +0.098 C 
ATOM      6  C   LIG    1      166.483 138.008 161.250  0.00  0.00    -0.013 C 
ATOM      7  C   LIG    1      165.983 137.438 161.573  0.00  0.00    -0.025 C 
ATOM      8  C   LIG    1      166.295 136.825 162.016  0.00  0.00    +0.067 C 
ATOM      9  C   LIG    1      165.787 136.249 162.343  0.00  0.00    +0.212 C 
ATOM     10  C   LIG    1      166.098 135.633 162.788  0.00  0.00    +0.263 C 
ATOM     11  O   LIG    1      165.289 135.682 162.664  0.00  0.00    -0.209 OA
ATOM     12  C   LIG    1      167.105 136.773 162.142  0.00  0.00    +0.087 C 
ATOM     13  C   LIG    1      166.908 135.581 162.914  0.00  0.00    +0.145 C 
ATOM     14  N   LIG    1      167.219 134.962 163.361  0.00  0.00    -0.255 N 
ATOM     15  C   LIG    1      166.720 134.392 163.684  0.00  0.00    +0.307 C 
ATOM     16  O   LIG    1      167.039 133.772 164.133  0.00  0.00    -0.265 OA
ATOM     17  C   LIG    1      168.035 134.920 163.481  0.00  0.00    +0.053 A 
ATOM     18  C   LIG    1      168.308 134.300 163.925  0.00  0.00    +0.051 A 
ATOM     19  C   LIG    1      169.123 134.234 164.061  0.00  0.00    +0.137 A 
ATOM     20  C   LIG    1      169.640 134.789 163.750  0.00  0.00    +0.026 A 
ATOM     21  C   LIG    1      169.356 135.416 163.300  0.00  0.00    -0.003 A 
ATOM     22  C   LIG    1      168.539 135.490 163.158  0.00  0.00    -0.007 A 
ENDROOT
BRANCH  20  23
ATOM     23  C   LIG    1      171.672 134.616 164.094  0.00  0.00    +0.146 C 
ATOM     24  C   LIG    1      171.739 134.195 163.382  0.00  0.00    +0.022 C 
ATOM     25  C   LIG    1      171.013 134.110 163.002  0.00  0.00    +0.020 C 
ATOM     26  C   LIG    1      170.854 133.726 162.284  0.00  0.00    +0.033 C 
ATOM     27  C   LIG    1      171.370 133.342 161.777  0.00  0.00    +0.141 C 
ATOM     28  O   LIG    1      171.481 132.810 160.886  0.00  0.00    -0.224 OA
ATOM     29  C   LIG    1      172.184 133.239 161.857  0.00  0.00    +0.103 C 
ATOM     30  N   LIG    1      172.680 133.498 162.467  0.00  0.00    -0.270 NA
ATOM     31  C   LIG    1      172.484 133.921 163.142  0.00  0.00    +0.077 C 
ATOM     32  C   LIG    1      173.153 134.066 163.606  0.00  0.00    +0.045 C 
ATOM     33  C   LIG    1      173.080 134.484 164.313  0.00  0.00    -0.005 A 
ATOM     34  C   LIG    1      173.681 135.043 165.478  0.00  0.00    +0.015 A 
ATOM     35  C   LIG    1      172.944 135.318 165.724  0.00  0.00    +0.081 A 
ATOM     36  C   LIG    1      172.864 135.737 166.429  0.00  0.00    +0.019 A 
ATOM     37  C   LIG    1      173.534 135.881 166.892  0.00  0.00    +0.002 A 
ATOM     38  C   LIG    1      174.272 135.605 166.647  0.00  0.00    +0.000 A 
ATOM     39  N   LIG    1      172.270 135.176 165.261  0.00  0.00    -0.249 NA
ATOM     40  C   LIG    1      174.347 135.188 165.943  0.00  0.00    +0.001 A 
ATOM     41  C   LIG    1      171.719 133.630 162.391  0.00  0.00    +0.072 C 
ATOM     42  C   LIG    1      172.342 134.760 164.559  0.00  0.00    +0.068 A 
BRANCH  23  43
ATOM     43  C   LIG    1      171.008 135.189 164.883  0.00  0.00    +0.325 C 
ATOM     44  O   LIG    1      170.698 134.787 165.525  0.00  0.00    -0.249 OA
BRANCH  43  45
ATOM     45  O   LIG    1      170.860 135.991 164.787  0.00  0.00    -0.444 OA
ATOM     46  C   LIG    1      170.626 136.443 165.430  0.00  0.00    +0.256 C 
ENDBRANCH  43  45
ENDBRANCH  23  43
BRANCH  27  47
ATOM     47  C   LIG    1      170.608 133.306 161.472  0.00  0.00    +0.032 C 
ATOM     48  C   LIG    1      170.262 132.965 160.804  0.00  0.00    +0.003 C 
ENDBRANCH  27  47
ENDBRANCH  20  23
BRANCH  10  49
ATOM     49  C   LIG    1      165.337 134.751 163.289  0.00  0.00    +0.350 C 
ATOM     50  O   LIG    1      165.083 134.767 164.000  0.00  0.00    -0.247 OA
BRANCH  49  51
ATOM     51  O   LIG    1      165.095 134.111 162.813  0.00  0.00    -0.443 OA
ATOM     52  C   LIG    1      164.663 133.565 163.143  0.00  0.00    +0.256 C 
ENDBRANCH  49  51
ENDBRANCH  10  49
BRANCH   8  53
ATOM     53  C   LIG    1      165.484 136.870 161.895  0.00  0.00    +0.009 C 
ATOM     54  C   LIG    1      165.200 137.132 161.164  0.00  0.00    +0.000 C 
ENDBRANCH   8  53
BRANCH  19  55
ATOM     55  O   LIG    1      169.447 133.596 164.522  0.00  0.00    -0.472 OA
ATOM     56  C   LIG    1      168.906 132.818 164.714  0.00  0.00    +0.252 C 
ENDBRANCH  19  55
BRANCH   9  57
ATOM     57  O   LIG    1      164.977 136.298 162.218  0.00  0.00    -0.449 OA
BRANCH  57  58
ATOM     58  C   LIG    1      164.589 136.655 162.641  0.00  0.00    +0.318 C 
ATOM     59  C   LIG    1      163.939 136.764 162.497  0.00  0.00    +0.121 C 
ATOM     60  O   LIG    1      164.857 136.903 163.209  0.00  0.00    -0.250 OA
ENDBRANCH  57  58
ENDBRANCH   9  57
TORSDOF 10
ENDMDL
