REMARK VINA RESULT:      -6.7     14.584     15.848
REMARK  Name = ZINC000009075134
REMARK                            x       y       z     vdW  Elec       q    Type
REMARK                         _______ _______ _______ _____ _____    ______ ____
ROOT
ATOM      1  C   LIG    1      162.846 162.906 155.025  0.00  0.00    +0.061 A 
ATOM      2  C   LIG    1      161.845 162.232 154.303  0.00  0.00    +0.039 A 
ATOM      3  C   LIG    1      161.499 162.651 153.027  0.00  0.00    +0.048 A 
ATOM      4  N   LIG    1      160.446 161.975 152.358  0.00  0.00    -0.284 N 
ATOM      5  H   LIG    1      159.763 161.424 152.896  0.00  0.00    +0.155 HD
ATOM      6  C   LIG    1      160.179 162.062 151.030  0.00  0.00    +0.227 C 
ATOM      7  C   LIG    1      161.160 162.709 150.071  0.00  0.00    +0.170 C 
ATOM      8  S   LIG    1      161.725 164.284 150.815  0.00  0.00    -0.114 S 
ATOM      9  O   LIG    1      159.140 161.558 150.663  0.00  0.00    -0.275 OA
ATOM     10  C   LIG    1      162.141 163.751 152.423  0.00  0.00    +0.030 A 
ATOM     11  C   LIG    1      163.126 164.431 153.144  0.00  0.00    +0.017 A 
ATOM     12  C   LIG    1      163.476 164.012 154.424  0.00  0.00    +0.016 A 
ENDROOT
BRANCH   1  14
ATOM     13  O   LIG    1      164.279 162.723 156.905  0.00  0.00    -0.245 OA
ATOM     14  C   LIG    1      163.214 162.458 156.364  0.00  0.00    +0.340 C 
BRANCH  14  15
ATOM     15  O   LIG    1      162.330 161.694 157.050  0.00  0.00    -0.456 OA
BRANCH  15  16
ATOM     16  C   LIG    1      162.736 160.555 157.854  0.00  0.00    +0.268 C 
BRANCH  16  17
ATOM     17  C   LIG    1      161.978 159.376 157.272  0.00  0.00    -0.010 A 
ATOM     18  C   LIG    1      162.323 158.865 156.021  0.00  0.00    +0.008 A 
ATOM     19  C   LIG    1      161.630 157.783 155.488  0.00  0.00    +0.015 A 
ATOM     20  C   LIG    1      160.586 157.201 156.204  0.00  0.00    +0.018 A 
ATOM     21 BR   LIG    1      159.642 155.729 155.479  0.00  0.00    -0.050 Br
ATOM     22  C   LIG    1      160.242 157.703 157.456  0.00  0.00    +0.015 A 
ATOM     23  C   LIG    1      160.937 158.785 157.989  0.00  0.00    +0.008 A 
ENDBRANCH  16  17
ENDBRANCH  15  16
ENDBRANCH  14  15
ENDBRANCH   1  14
TORSDOF 4
