REMARK VINA RESULT:     -10.9     12.500     15.151
REMARK  Name = 
REMARK                            x       y       z     vdW  Elec       q    Type
REMARK                         _______ _______ _______ _____ _____    ______ ____
ROOT
ATOM      1  C   LIG    1      177.714 111.421 186.618  0.00  0.00    +0.046 C 
ATOM      2  C   LIG    1      177.385 111.579 187.363  0.00  0.00    +0.024 C 
ATOM      3  C   LIG    1      176.153 111.792 186.812  0.00  0.00    +0.072 C 
ATOM      4  N   LIG    1      176.432 111.641 186.022  0.00  0.00    -0.274 NA
ATOM      5  C   LIG    1      175.955 111.672 185.351  0.00  0.00    +0.098 C 
ATOM      6  C   LIG    1      176.285 111.515 184.611  0.00  0.00    -0.013 C 
ATOM      7  C   LIG    1      177.085 111.328 184.543  0.00  0.00    -0.025 C 
ATOM      8  C   LIG    1      177.556 111.298 185.211  0.00  0.00    +0.067 C 
ATOM      9  C   LIG    1      178.366 111.109 185.139  0.00  0.00    +0.212 C 
ATOM     10  C   LIG    1      178.840 111.078 185.808  0.00  0.00    +0.263 C 
ATOM     11  O   LIG    1      179.161 110.923 185.069  0.00  0.00    -0.209 OA
ATOM     12  C   LIG    1      177.237 111.453 185.952  0.00  0.00    +0.087 C 
ATOM     13  C   LIG    1      178.522 111.233 186.550  0.00  0.00    +0.145 C 
ATOM     14  N   LIG    1      178.999 111.201 187.220  0.00  0.00    -0.255 N 
ATOM     15  C   LIG    1      179.799 111.015 187.152  0.00  0.00    +0.307 C 
ATOM     16  O   LIG    1      180.274 110.985 187.831  0.00  0.00    -0.265 OA
ATOM     17  C   LIG    1      178.669 111.359 187.960  0.00  0.00    +0.053 A 
ATOM     18  C   LIG    1      179.165 111.320 188.599  0.00  0.00    +0.051 A 
ATOM     19  C   LIG    1      178.859 111.473 189.354  0.00  0.00    +0.137 A 
ATOM     20  C   LIG    1      178.066 111.661 189.448  0.00  0.00    +0.026 A 
ATOM     21  C   LIG    1      177.568 111.699 188.795  0.00  0.00    -0.003 A 
ATOM     22  C   LIG    1      177.868 111.546 188.033  0.00  0.00    -0.007 A 
ENDROOT
BRANCH  20  23
ATOM     23  C   LIG    1      177.311 112.042 191.334  0.00  0.00    +0.146 C 
ATOM     24  C   LIG    1      177.114 111.239 191.399  0.00  0.00    +0.022 C 
ATOM     25  C   LIG    1      177.324 110.813 190.726  0.00  0.00    +0.020 C 
ATOM     26  C   LIG    1      177.219 110.003 190.581  0.00  0.00    +0.033 C 
ATOM     27  C   LIG    1      176.887 109.430 191.062  0.00  0.00    +0.141 C 
ATOM     28  O   LIG    1      176.630 108.423 191.168  0.00  0.00    -0.224 OA
ATOM     29  C   LIG    1      176.570 109.517 191.818  0.00  0.00    +0.103 C 
ATOM     30  N   LIG    1      176.510 110.203 192.276  0.00  0.00    -0.270 NA
ATOM     31  C   LIG    1      176.751 110.966 192.093  0.00  0.00    +0.077 C 
ATOM     32  C   LIG    1      176.585 111.487 192.713  0.00  0.00    +0.045 C 
ATOM     33  C   LIG    1      176.782 112.284 192.642  0.00  0.00    -0.005 A 
ATOM     34  C   LIG    1      176.810 113.597 193.197  0.00  0.00    +0.015 A 
ATOM     35  C   LIG    1      177.172 113.877 192.510  0.00  0.00    +0.081 A 
ATOM     36  C   LIG    1      177.372 114.672 192.434  0.00  0.00    +0.019 A 
ATOM     37  C   LIG    1      177.205 115.193 193.055  0.00  0.00    +0.002 A 
ATOM     38  C   LIG    1      176.843 114.913 193.741  0.00  0.00    +0.000 A 
ATOM     39  N   LIG    1      177.340 113.357 191.886  0.00  0.00    -0.249 NA
ATOM     40  C   LIG    1      176.646 114.119 193.814  0.00  0.00    +0.001 A 
ATOM     41  C   LIG    1      176.888 110.121 191.384  0.00  0.00    +0.072 C 
ATOM     42  C   LIG    1      177.144 112.564 191.956  0.00  0.00    +0.068 A 
BRANCH  23  43
ATOM     43  C   LIG    1      177.771 112.935 190.715  0.00  0.00    +0.325 C 
ATOM     44  O   LIG    1      178.557 113.139 190.816  0.00  0.00    -0.249 OA
BRANCH  43  45
ATOM     45  O   LIG    1      177.301 113.350 190.185  0.00  0.00    -0.444 OA
ATOM     46  C   LIG    1      177.519 114.105 189.950  0.00  0.00    +0.256 C 
ENDBRANCH  43  45
ENDBRANCH  23  43
BRANCH  27  47
ATOM     47  C   LIG    1      177.129 109.088 190.354  0.00  0.00    +0.032 C 
ATOM     48  C   LIG    1      177.099 108.328 190.034  0.00  0.00    +0.003 C 
ENDBRANCH  27  47
ENDBRANCH  20  23
BRANCH  10  49
ATOM     49  C   LIG    1      180.072 110.792 185.712  0.00  0.00    +0.350 C 
ATOM     50  O   LIG    1      180.354 110.099 185.814  0.00  0.00    -0.247 OA
BRANCH  49  51
ATOM     51  O   LIG    1      180.612 111.398 185.525  0.00  0.00    -0.443 OA
ATOM     52  C   LIG    1      181.357 111.207 185.470  0.00  0.00    +0.256 C 
ENDBRANCH  49  51
ENDBRANCH  10  49
BRANCH   8  53
ATOM     53  C   LIG    1      177.881 111.142 184.473  0.00  0.00    +0.009 C 
ATOM     54  C   LIG    1      177.623 111.576 183.819  0.00  0.00    +0.000 C 
ENDBRANCH   8  53
BRANCH  19  55
ATOM     55  O   LIG    1      179.350 111.441 190.048  0.00  0.00    -0.472 OA
ATOM     56  C   LIG    1      180.270 111.155 189.975  0.00  0.00    +0.252 C 
ENDBRANCH  19  55
BRANCH   9  57
ATOM     57  O   LIG    1      178.687 110.954 184.400  0.00  0.00    -0.449 OA
BRANCH  57  58
ATOM     58  C   LIG    1      178.660 110.330 184.142  0.00  0.00    +0.318 C 
ATOM     59  C   LIG    1      178.816 110.223 183.494  0.00  0.00    +0.121 C 
ATOM     60  O   LIG    1      178.477 109.814 184.536  0.00  0.00    -0.250 OA
ENDBRANCH  57  58
ENDBRANCH   9  57
TORSDOF 10
