REMARK VINA RESULT:      -4.3     78.536     79.753
REMARK  Name = 
REMARK                            x       y       z     vdW  Elec       q    Type
REMARK                         _______ _______ _______ _____ _____    ______ ____
ROOT
ATOM      1  C   LIG    1      193.479  81.429 161.932  0.00  0.00    +0.160 A 
ATOM      2  N   LIG    1      194.589  80.703 162.150  0.00  0.00    -0.236 NA
ATOM      3  C   LIG    1      195.808  81.254 162.226  0.00  0.00    +0.120 A 
ATOM      4  C   LIG    1      195.995  82.613 162.086  0.00  0.00    +0.120 A 
ATOM      5  N   LIG    1      194.893  83.351 161.868  0.00  0.00    -0.239 NA
ATOM      6  C   LIG    1      193.667  82.800 161.790  0.00  0.00    +0.123 A 
ENDROOT
BRANCH   1   8
ATOM      7  N   LIG    1      191.920  79.574 162.079  0.00  0.00    -0.101 NA
ATOM      8  C   LIG    1      192.163  80.813 161.851  0.00  0.00    +0.316 C 
ATOM      9  O   LIG    1      191.089  81.614 161.505  0.00  0.00    -0.262 OA
ENDBRANCH   1   8
TORSDOF 1
