REMARK VINA RESULT:      -4.2     58.530     59.198
REMARK  Name = 
REMARK                            x       y       z     vdW  Elec       q    Type
REMARK                         _______ _______ _______ _____ _____    ______ ____
ROOT
ATOM      1  C   LIG    1      188.838 100.897 148.563  0.00  0.00    +0.160 A 
ATOM      2  N   LIG    1      188.201  99.915 147.903  0.00  0.00    -0.236 NA
ATOM      3  C   LIG    1      187.020  99.425 148.305  0.00  0.00    +0.120 A 
ATOM      4  C   LIG    1      186.384  99.908 149.429  0.00  0.00    +0.120 A 
ATOM      5  N   LIG    1      187.010 100.890 150.098  0.00  0.00    -0.239 NA
ATOM      6  C   LIG    1      188.196 101.385 149.698  0.00  0.00    +0.123 A 
ENDROOT
BRANCH   1   8
ATOM      7  N   LIG    1      190.558 101.343 146.908  0.00  0.00    -0.101 NA
ATOM      8  C   LIG    1      190.120 101.417 148.113  0.00  0.00    +0.316 C 
ATOM      9  O   LIG    1      190.935 102.039 149.043  0.00  0.00    -0.262 OA
ENDBRANCH   1   8
TORSDOF 1
