REMARK VINA RESULT:      -6.7     11.469     13.436
REMARK  Name = ZINC000009075134
REMARK                            x       y       z     vdW  Elec       q    Type
REMARK                         _______ _______ _______ _____ _____    ______ ____
ROOT
ATOM      1  C   LIG    1      181.389 151.191 148.793  0.00  0.00    +0.061 A 
ATOM      2  C   LIG    1      181.873 151.380 150.099  0.00  0.00    +0.039 A 
ATOM      3  C   LIG    1      183.207 151.696 150.314  0.00  0.00    +0.048 A 
ATOM      4  N   LIG    1      183.663 151.823 151.651  0.00  0.00    -0.284 N 
ATOM      5  H   LIG    1      183.131 151.394 152.420  0.00  0.00    +0.155 HD
ATOM      6  C   LIG    1      184.834 152.397 152.027  0.00  0.00    +0.227 C 
ATOM      7  C   LIG    1      185.668 153.200 151.047  0.00  0.00    +0.170 C 
ATOM      8  S   LIG    1      185.780 152.248 149.486  0.00  0.00    -0.114 S 
ATOM      9  O   LIG    1      185.142 152.262 153.191  0.00  0.00    -0.275 OA
ATOM     10  C   LIG    1      184.103 151.841 149.235  0.00  0.00    +0.030 A 
ATOM     11  C   LIG    1      183.626 151.640 147.937  0.00  0.00    +0.017 A 
ATOM     12  C   LIG    1      182.290 151.324 147.718  0.00  0.00    +0.016 A 
ENDROOT
BRANCH   1  14
ATOM     13  O   LIG    1      179.593 149.802 148.110  0.00  0.00    -0.245 OA
ATOM     14  C   LIG    1      179.984 150.867 148.570  0.00  0.00    +0.340 C 
BRANCH  14  15
ATOM     15  O   LIG    1      179.054 151.802 148.880  0.00  0.00    -0.456 OA
BRANCH  15  16
ATOM     16  C   LIG    1      177.814 151.477 149.563  0.00  0.00    +0.268 C 
BRANCH  16  17
ATOM     17  C   LIG    1      178.208 151.279 151.015  0.00  0.00    -0.010 A 
ATOM     18  C   LIG    1      178.503 152.379 151.821  0.00  0.00    +0.008 A 
ATOM     19  C   LIG    1      178.862 152.198 153.153  0.00  0.00    +0.015 A 
ATOM     20  C   LIG    1      178.928 150.916 153.691  0.00  0.00    +0.018 A 
ATOM     21 BR   LIG    1      179.419 150.670 155.502  0.00  0.00    -0.050 Br
ATOM     22  C   LIG    1      178.629 149.815 152.892  0.00  0.00    +0.015 A 
ATOM     23  C   LIG    1      178.268 149.997 151.560  0.00  0.00    +0.008 A 
ENDBRANCH  16  17
ENDBRANCH  15  16
ENDBRANCH  14  15
ENDBRANCH   1  14
TORSDOF 4
