REMARK VINA RESULT:      -7.2      1.858      2.548
REMARK  Name = ZINC000000623204
REMARK                            x       y       z     vdW  Elec       q    Type
REMARK                         _______ _______ _______ _____ _____    ______ ____
ROOT
ATOM      1  C   LIG    1      169.099 146.180 145.124  0.00  0.00    +0.124 A 
ATOM      2  C   LIG    1      169.986 145.715 144.140  0.00  0.00    +0.067 A 
ATOM      3 CL   LIG    1      169.939 144.087 143.539  0.00  0.00    -0.082 Cl
ATOM      4  C   LIG    1      170.970 146.562 143.622  0.00  0.00    +0.023 A 
ATOM      5  C   LIG    1      171.086 147.866 144.080  0.00  0.00    +0.014 A 
ATOM      6  C   LIG    1      170.215 148.355 145.065  0.00  0.00    +0.039 A 
ATOM      7  C   LIG    1      169.232 147.494 145.575  0.00  0.00    +0.043 A 
ENDROOT
BRANCH   6   8
ATOM      8  C   LIG    1      170.315 149.724 145.572  0.00  0.00    +0.245 C 
ATOM      9  N   LIG    1      169.469 150.138 146.557  0.00  0.00    -0.305 N 
ATOM     10  H   LIG    1      168.770 149.493 146.937  0.00  0.00    +0.150 HD
ATOM     11  O   LIG    1      171.142 150.529 145.161  0.00  0.00    -0.270 OA
BRANCH   9  12
ATOM     12  C   LIG    1      169.446 151.493 147.071  0.00  0.00    +0.100 C 
ATOM     13  C   LIG    1      169.814 151.432 148.559  0.00  0.00    +0.033 C 
BRANCH  12  14
ATOM     14  C   LIG    1      168.010 151.979 146.922  0.00  0.00    -0.027 A 
ATOM     15  C   LIG    1      167.490 153.010 147.713  0.00  0.00    +0.005 A 
ATOM     16  C   LIG    1      166.169 153.421 147.557  0.00  0.00    +0.000 A 
ATOM     17  C   LIG    1      165.355 152.806 146.613  0.00  0.00    +0.000 A 
ATOM     18  C   LIG    1      165.862 151.780 145.824  0.00  0.00    +0.000 A 
ATOM     19  C   LIG    1      167.183 151.369 145.978  0.00  0.00    +0.005 A 
ENDBRANCH  12  14
ENDBRANCH   9  12
ENDBRANCH   6   8
BRANCH   1  20
ATOM     20  S   LIG    1      167.806 145.124 145.796  0.00  0.00    +0.062 S 
ATOM     21  O   LIG    1      167.016 145.898 146.690  0.00  0.00    -0.153 OA
ATOM     22  O   LIG    1      167.103 144.514 144.721  0.00  0.00    -0.153 OA
BRANCH  20  23
ATOM     23  N   LIG    1      168.605 143.951 146.664  0.00  0.00    -0.177 NA
BRANCH  23  25
ATOM     24  C   LIG    1      170.993 143.563 147.011  0.00  0.00    +0.022 C 
ATOM     25  C   LIG    1      169.741 144.274 147.544  0.00  0.00    +0.106 C 
ENDBRANCH  23  25
BRANCH  23  26
ATOM     26  C   LIG    1      167.851 142.767 147.082  0.00  0.00    +0.106 C 
ATOM     27  C   LIG    1      167.579 142.989 148.573  0.00  0.00    +0.022 C 
ENDBRANCH  23  26
ENDBRANCH  20  23
ENDBRANCH   1  20
TORSDOF 7
