REMARK VINA RESULT:      -4.2     10.917     12.121
REMARK  Name = 
REMARK                            x       y       z     vdW  Elec       q    Type
REMARK                         _______ _______ _______ _____ _____    ______ ____
ROOT
ATOM      1  C   LIG    1      164.131 144.325 148.395  0.00  0.00    +0.160 A 
ATOM      2  N   LIG    1      163.684 145.592 148.433  0.00  0.00    -0.236 NA
ATOM      3  C   LIG    1      163.337 146.201 149.575  0.00  0.00    +0.120 A 
ATOM      4  C   LIG    1      163.422 145.555 150.790  0.00  0.00    +0.120 A 
ATOM      5  N   LIG    1      163.867 144.288 150.767  0.00  0.00    -0.239 NA
ATOM      6  C   LIG    1      164.216 143.673 149.621  0.00  0.00    +0.123 A 
ENDROOT
BRANCH   1   8
ATOM      7  N   LIG    1      163.882 143.829 146.031  0.00  0.00    -0.101 NA
ATOM      8  C   LIG    1      164.503 143.680 147.145  0.00  0.00    +0.316 C 
ATOM      9  O   LIG    1      165.605 142.844 147.145  0.00  0.00    -0.262 OA
ENDBRANCH   1   8
TORSDOF 1
