REMARK VINA RESULT:      -7.3      3.577      8.600
REMARK  Name = ZINC000049483826
REMARK                            x       y       z     vdW  Elec       q    Type
REMARK                         _______ _______ _______ _____ _____    ______ ____
ROOT
ATOM      1  N   LIG    1      168.866 149.431 146.312  0.00  0.00    -0.175 NA
ATOM      2  C   LIG    1      170.270 149.126 146.019  0.00  0.00    +0.123 C 
ATOM      3  C   LIG    1      169.756 147.800 145.404  0.00  0.00    +0.109 C 
ATOM      4  C   LIG    1      168.435 148.035 146.182  0.00  0.00    +0.123 C 
ENDROOT
BRANCH   3   5
ATOM      5  C   LIG    1      170.517 146.594 145.897  0.00  0.00    +0.233 A 
ATOM      6  O   LIG    1      171.797 146.479 145.613  0.00  0.00    -0.337 OA
ATOM      7  N   LIG    1      172.234 145.359 146.145  0.00  0.00    -0.056 NA
ATOM      8  C   LIG    1      171.210 144.837 146.732  0.00  0.00    +0.209 A 
ATOM      9  N   LIG    1      170.104 145.610 146.586  0.00  0.00    -0.191 NA
BRANCH   8  10
ATOM     10  C   LIG    1      171.240 143.575 147.460  0.00  0.00    +0.060 A 
ATOM     11  S   LIG    1      169.783 142.783 147.983  0.00  0.00    -0.093 S 
ATOM     12  C   LIG    1      170.684 141.491 148.689  0.00  0.00    +0.046 A 
ATOM     13  C   LIG    1      172.029 141.665 148.528  0.00  0.00    +0.008 A 
ATOM     14  C   LIG    1      172.344 142.842 147.834  0.00  0.00    +0.019 A 
ENDBRANCH   8  10
ENDBRANCH   3   5
BRANCH   1  15
ATOM     15  S   LIG    1      168.072 150.680 145.599  0.00  0.00    +0.061 S 
ATOM     16  O   LIG    1      168.953 151.330 144.693  0.00  0.00    -0.153 OA
ATOM     17  O   LIG    1      166.864 150.169 145.046  0.00  0.00    -0.153 OA
BRANCH  15  20
ATOM     18  C   LIG    1      165.409 152.434 145.913  0.00  0.00    +0.046 C 
ATOM     19  C   LIG    1      166.458 152.542 147.009  0.00  0.00    -0.024 A 
ATOM     20  C   LIG    1      167.661 151.808 146.961  0.00  0.00    +0.110 A 
ATOM     21  C   LIG    1      168.579 151.950 148.007  0.00  0.00    +0.048 A 
ATOM     22  C   LIG    1      168.316 152.804 149.075  0.00  0.00    +0.043 A 
ATOM     23 CL   LIG    1      169.473 152.968 150.353  0.00  0.00    -0.083 Cl
ATOM     24  C   LIG    1      167.128 153.525 149.117  0.00  0.00    +0.020 A 
ATOM     25  C   LIG    1      166.206 153.391 148.088  0.00  0.00    +0.007 A 
ENDBRANCH  15  20
ENDBRANCH   1  15
TORSDOF 4
