REMARK VINA RESULT:      -7.1     60.650     62.605
REMARK  Name = ZINC000006087141
REMARK                            x       y       z     vdW  Elec       q    Type
REMARK                         _______ _______ _______ _____ _____    ______ ____
ROOT
ATOM      1  C   LIG    1      200.574 117.368 143.550  0.00  0.00    +0.222 C 
ENDROOT
BRANCH   1   2
ATOM      2  N   LIG    1      201.813 116.687 144.001  0.00  0.00    -0.290 N 
ATOM      3  C   LIG    1      203.004 116.881 143.326  0.00  0.00    +0.262 A 
ATOM      4  O   LIG    1      202.977 117.598 142.324  0.00  0.00    -0.267 OA
ATOM      5  C   LIG    1      204.195 116.245 143.843  0.00  0.00    +0.068 A 
ATOM      6  C   LIG    1      205.443 116.390 143.218  0.00  0.00    +0.035 A 
ATOM      7  C   LIG    1      206.563 115.760 143.749  0.00  0.00    +0.043 A 
ATOM      8 CL   LIG    1      208.101 115.947 142.979  0.00  0.00    -0.083 Cl
ATOM      9  C   LIG    1      206.455 114.981 144.903  0.00  0.00    +0.042 A 
ATOM     10  C   LIG    1      205.221 114.835 145.527  0.00  0.00    +0.068 A 
ATOM     11 CL   LIG    1      205.124 113.858 146.959  0.00  0.00    -0.081 Cl
ATOM     12  C   LIG    1      204.073 115.471 145.004  0.00  0.00    +0.096 A 
ATOM     13  N   LIG    1      202.815 115.353 145.626  0.00  0.00    -0.235 NA
ATOM     14  C   LIG    1      201.774 115.928 145.158  0.00  0.00    +0.203 A 
ENDBRANCH   1   2
BRANCH   1  17
ATOM     15  N   LIG    1      199.594 115.308 142.621  0.00  0.00    -0.281 N 
ATOM     16  H   LIG    1      200.385 115.401 141.954  0.00  0.00    +0.155 HD
ATOM     17  C   LIG    1      199.475 116.322 143.537  0.00  0.00    +0.237 C 
ATOM     18  O   LIG    1      198.502 116.417 144.257  0.00  0.00    -0.274 OA
BRANCH  15  20
ATOM     19  C   LIG    1      198.954 113.018 142.975  0.00  0.00    +0.141 A 
ATOM     20  C   LIG    1      198.706 114.238 142.332  0.00  0.00    +0.076 A 
ATOM     21  C   LIG    1      197.612 114.365 141.471  0.00  0.00    +0.030 A 
ATOM     22  C   LIG    1      196.781 113.269 141.239  0.00  0.00    -0.048 A 
ATOM     23  C   LIG    1      195.595 113.403 140.309  0.00  0.00    +0.044 C 
ATOM     24  C   LIG    1      197.036 112.055 141.881  0.00  0.00    +0.007 A 
ATOM     25  C   LIG    1      198.119 111.925 142.748  0.00  0.00    +0.048 A 
BRANCH  19  27
ATOM     26  C   LIG    1      199.965 112.844 145.276  0.00  0.00    +0.277 C 
ATOM     27  O   LIG    1      200.046 112.935 143.837  0.00  0.00    -0.493 OA
ENDBRANCH  19  27
ENDBRANCH  15  20
ENDBRANCH   1  17
TORSDOF 4
