REMARK VINA RESULT:      -6.9      3.227      4.512
REMARK  Name = ZINC000006087141
REMARK                            x       y       z     vdW  Elec       q    Type
REMARK                         _______ _______ _______ _____ _____    ______ ____
ROOT
ATOM      1  C   LIG    1      162.597 160.760 158.781  0.00  0.00    +0.222 C 
ENDROOT
BRANCH   1   2
ATOM      2  N   LIG    1      162.944 161.606 157.612  0.00  0.00    -0.290 N 
ATOM      3  C   LIG    1      162.007 161.858 156.627  0.00  0.00    +0.262 A 
ATOM      4  O   LIG    1      160.904 161.320 156.743  0.00  0.00    -0.267 OA
ATOM      5  C   LIG    1      162.376 162.739 155.542  0.00  0.00    +0.068 A 
ATOM      6  C   LIG    1      161.485 163.047 154.502  0.00  0.00    +0.035 A 
ATOM      7  C   LIG    1      161.881 163.900 153.478  0.00  0.00    +0.043 A 
ATOM      8 CL   LIG    1      160.777 164.281 152.202  0.00  0.00    -0.083 Cl
ATOM      9  C   LIG    1      163.163 164.452 153.474  0.00  0.00    +0.042 A 
ATOM     10  C   LIG    1      164.049 164.152 154.502  0.00  0.00    +0.068 A 
ATOM     11 CL   LIG    1      165.636 164.857 154.465  0.00  0.00    -0.081 Cl
ATOM     12  C   LIG    1      163.663 163.291 155.554  0.00  0.00    +0.096 A 
ATOM     13  N   LIG    1      164.536 162.984 156.616  0.00  0.00    -0.235 NA
ATOM     14  C   LIG    1      164.191 162.208 157.571  0.00  0.00    +0.203 A 
ENDBRANCH   1   2
BRANCH   1  17
ATOM     15  N   LIG    1      163.628 158.670 159.578  0.00  0.00    -0.281 N 
ATOM     16  H   LIG    1      163.651 159.190 160.477  0.00  0.00    +0.155 HD
ATOM     17  C   LIG    1      163.150 159.374 158.503  0.00  0.00    +0.237 C 
ATOM     18  O   LIG    1      163.227 158.939 157.372  0.00  0.00    -0.274 OA
BRANCH  15  20
ATOM     19  C   LIG    1      165.632 157.377 159.884  0.00  0.00    +0.141 A 
ATOM     20  C   LIG    1      164.255 157.396 159.621  0.00  0.00    +0.076 A 
ATOM     21  C   LIG    1      163.562 156.197 159.439  0.00  0.00    +0.030 A 
ATOM     22  C   LIG    1      164.247 154.983 159.499  0.00  0.00    -0.048 A 
ATOM     23  C   LIG    1      163.499 153.682 159.304  0.00  0.00    +0.044 C 
ATOM     24  C   LIG    1      165.619 154.971 159.758  0.00  0.00    +0.007 A 
ATOM     25  C   LIG    1      166.315 156.164 159.951  0.00  0.00    +0.048 A 
BRANCH  19  27
ATOM     26  C   LIG    1      166.923 159.012 161.301  0.00  0.00    +0.277 C 
ATOM     27  O   LIG    1      166.285 158.594 160.074  0.00  0.00    -0.493 OA
ENDBRANCH  19  27
ENDBRANCH  15  20
ENDBRANCH   1  17
TORSDOF 4
