REMARK VINA RESULT:      -8.0      0.000      0.000
REMARK  Name = ZINC000006087320
REMARK                            x       y       z     vdW  Elec       q    Type
REMARK                         _______ _______ _______ _____ _____    ______ ____
ROOT
ATOM      1  C   LIG    1      164.453 162.814 155.850  0.00  0.00    +0.222 C 
ENDROOT
BRANCH   1   2
ATOM      2  N   LIG    1      163.794 161.986 156.889  0.00  0.00    -0.290 N 
ATOM      3  C   LIG    1      164.477 160.951 157.503  0.00  0.00    +0.262 A 
ATOM      4  O   LIG    1      165.638 160.743 157.141  0.00  0.00    -0.267 OA
ATOM      5  C   LIG    1      163.782 160.177 158.510  0.00  0.00    +0.068 A 
ATOM      6  C   LIG    1      164.408 159.129 159.201  0.00  0.00    +0.035 A 
ATOM      7  C   LIG    1      163.702 158.409 160.158  0.00  0.00    +0.043 A 
ATOM      8 CL   LIG    1      164.476 157.116 161.008  0.00  0.00    -0.083 Cl
ATOM      9  C   LIG    1      162.368 158.720 160.435  0.00  0.00    +0.042 A 
ATOM     10  C   LIG    1      161.744 159.757 159.752  0.00  0.00    +0.068 A 
ATOM     11 CL   LIG    1      160.086 160.116 160.123  0.00  0.00    -0.081 Cl
ATOM     12  C   LIG    1      162.446 160.499 158.776  0.00  0.00    +0.096 A 
ATOM     13  N   LIG    1      161.832 161.549 158.066  0.00  0.00    -0.235 NA
ATOM     14  C   LIG    1      162.464 162.229 157.187  0.00  0.00    +0.203 A 
ENDBRANCH   1   2
BRANCH   1  17
ATOM     15  N   LIG    1      163.072 163.835 154.083  0.00  0.00    -0.284 N 
ATOM     16  H   LIG    1      163.275 164.684 154.640  0.00  0.00    +0.155 HD
ATOM     17  C   LIG    1      163.639 162.684 154.573  0.00  0.00    +0.237 C 
ATOM     18  O   LIG    1      163.517 161.617 154.010  0.00  0.00    -0.274 OA
BRANCH  15  20
ATOM     19  C   LIG    1      160.849 164.165 153.183  0.00  0.00    -0.026 A 
ATOM     20  C   LIG    1      162.231 164.027 152.956  0.00  0.00    +0.037 A 
ATOM     21  C   LIG    1      162.751 164.105 151.660  0.00  0.00    +0.023 A 
ATOM     22  C   LIG    1      161.893 164.294 150.583  0.00  0.00    +0.002 A 
ATOM     23  C   LIG    1      160.523 164.414 150.795  0.00  0.00    +0.000 A 
ATOM     24  C   LIG    1      160.008 164.351 152.087  0.00  0.00    +0.005 A 
BRANCH  19  26
ATOM     25  C   LIG    1      158.710 164.034 154.377  0.00  0.00    +0.009 C 
ATOM     26  C   LIG    1      160.231 164.107 154.575  0.00  0.00    +0.033 C 
ENDBRANCH  19  26
ENDBRANCH  15  20
ENDBRANCH   1  17
TORSDOF 4
