REMARK VINA RESULT:      -6.4     67.315     69.213
REMARK  Name = 
REMARK                            x       y       z     vdW  Elec       q    Type
REMARK                         _______ _______ _______ _____ _____    ______ ____
ROOT
ATOM      1  O   LIG    1      188.970  86.324 157.526  0.00  0.00    -0.346 OA
ENDROOT
BRANCH   1   7
ATOM      2  C   LIG    1      194.628  87.201 157.804  0.00  0.00    +0.398 A 
ATOM      3  N   LIG    1      193.883  88.072 158.542  0.00  0.00    -0.128 NA
ATOM      4  C   LIG    1      192.590  87.901 158.298  0.00  0.00    +0.306 A 
ATOM      5  O   LIG    1      191.443  88.536 158.796  0.00  0.00    -0.445 OA
ATOM      6  C   LIG    1      190.187  88.160 158.264  0.00  0.00    +0.240 C 
ATOM      7  C   LIG    1      190.286  86.478 158.306  0.00  0.00    +0.182 C 
ATOM      8  C   LIG    1      191.196  86.448 156.888  0.00  0.00    +0.144 C 
ATOM      9  N   LIG    1      192.482  86.914 157.398  0.00  0.00    -0.272 N 
ATOM     10  C   LIG    1      193.715  86.479 157.088  0.00  0.00    +0.178 A 
BRANCH   2  12
ATOM     11  O   LIG    1      196.476  86.458 158.138  0.00  0.00    +0.043 OA
ATOM     12  N   LIG    1      196.059  87.088 157.800  0.00  0.00    +0.103 N 
ATOM     13  O   LIG    1      196.731  88.142 157.170  0.00  0.00    -0.575 OA
ENDBRANCH   2  12
ENDBRANCH   1   7
BRANCH   1  14
ATOM     14  C   LIG    1      188.845  84.937 157.428  0.00  0.00    +0.169 C 
BRANCH  14  15
ATOM     15  C   LIG    1      187.518  84.497 157.968  0.00  0.00    +0.007 A 
ATOM     16  C   LIG    1      186.483  85.398 158.136  0.00  0.00    +0.001 A 
ATOM     17  C   LIG    1      185.253  85.044 158.626  0.00  0.00    +0.037 A 
ATOM     18  C   LIG    1      185.029  83.711 158.974  0.00  0.00    +0.147 A 
ATOM     19  C   LIG    1      186.033  82.792 158.819  0.00  0.00    +0.037 A 
ATOM     20  C   LIG    1      187.263  83.187 158.321  0.00  0.00    +0.001 A 
BRANCH  18  21
ATOM     21  O   LIG    1      183.777  83.352 159.471  0.00  0.00    -0.404 OA
BRANCH  21  22
ATOM     22  C   LIG    1      183.515  83.576 160.859  0.00  0.00    +0.575 C 
ATOM     23  F   LIG    1      184.711  83.594 161.546  0.00  0.00    -0.133 F 
ATOM     24  F   LIG    1      182.744  82.538 161.372  0.00  0.00    -0.133 F 
ATOM     25  F   LIG    1      182.866  84.793 160.983  0.00  0.00    -0.133 F 
ENDBRANCH  21  22
ENDBRANCH  18  21
ENDBRANCH  14  15
ENDBRANCH   1  14
TORSDOF 6
