REMARK VINA RESULT:      -8.4      3.034      4.628
REMARK  Name = ZINC000049420917
REMARK                            x       y       z     vdW  Elec       q    Type
REMARK                         _______ _______ _______ _____ _____    ______ ____
ROOT
ATOM      1  N   LIG    1      169.638 145.816 147.307  0.00  0.00    -0.205 N 
ATOM      2  C   LIG    1      169.662 145.222 146.022  0.00  0.00    +0.160 A 
ATOM      3  N   LIG    1      168.912 144.127 145.830  0.00  0.00    -0.238 NA
ATOM      4  C   LIG    1      168.917 143.536 144.636  0.00  0.00    +0.113 A 
ATOM      5  C   LIG    1      169.673 144.030 143.575  0.00  0.00    +0.022 A 
ATOM      6  C   LIG    1      170.449 145.169 143.757  0.00  0.00    +0.034 A 
ATOM      7  C   LIG    1      170.445 145.765 145.012  0.00  0.00    +0.149 A 
ATOM      8  S   LIG    1      171.295 147.247 145.443  0.00  0.00    +0.082 S 
ATOM      9  O   LIG    1      172.480 146.922 146.141  0.00  0.00    -0.150 OA
ATOM     10  O   LIG    1      171.436 148.055 144.288  0.00  0.00    -0.150 OA
ATOM     11  N   LIG    1      170.253 147.969 146.482  0.00  0.00    -0.150 N 
ATOM     12  C   LIG    1      169.973 147.158 147.538  0.00  0.00    +0.334 C 
ATOM     13  O   LIG    1      170.002 147.607 148.680  0.00  0.00    -0.250 OA
ENDROOT
BRANCH   1  18
ATOM     14  C   LIG    1      168.299 142.582 151.821  0.00  0.00    +0.044 C 
ATOM     15  C   LIG    1      168.655 143.446 150.630  0.00  0.00    -0.050 A 
ATOM     16  C   LIG    1      169.937 143.388 150.081  0.00  0.00    +0.005 A 
ATOM     17  C   LIG    1      170.268 144.170 148.980  0.00  0.00    +0.024 A 
ATOM     18  C   LIG    1      169.303 145.012 148.430  0.00  0.00    +0.044 A 
ATOM     19  C   LIG    1      168.017 145.078 148.964  0.00  0.00    +0.024 A 
ATOM     20  C   LIG    1      167.697 144.291 150.065  0.00  0.00    +0.005 A 
ENDBRANCH   1  18
BRANCH  11  21
ATOM     21  C   LIG    1      170.544 149.381 146.720  0.00  0.00    +0.171 C 
BRANCH  21  22
ATOM     22  C   LIG    1      169.263 150.083 146.313  0.00  0.00    -0.028 A 
ATOM     23  C   LIG    1      168.381 150.549 147.295  0.00  0.00    +0.008 A 
ATOM     24  C   LIG    1      167.206 151.200 146.929  0.00  0.00    +0.038 A 
ATOM     25  C   LIG    1      166.934 151.379 145.580  0.00  0.00    +0.123 A 
ATOM     26  F   LIG    1      165.791 152.010 145.220  0.00  0.00    -0.205 F 
ATOM     27  C   LIG    1      167.795 150.933 144.587  0.00  0.00    +0.038 A 
ATOM     28  C   LIG    1      168.968 150.282 144.960  0.00  0.00    +0.008 A 
ENDBRANCH  21  22
ENDBRANCH  11  21
TORSDOF 3
