REMARK VINA RESULT:      -6.6      0.000      0.000
REMARK  Name = ZINC000193546412
REMARK                            x       y       z     vdW  Elec       q    Type
REMARK                         _______ _______ _______ _____ _____    ______ ____
ROOT
ATOM      1  C   LIG    1      156.257 188.876 160.605  0.00  0.00    +0.171 A 
ATOM      2  N   LIG    1      156.742 187.598 160.494  0.00  0.00    -0.204 NA
ATOM      3  C   LIG    1      157.560 187.559 159.501  0.00  0.00    +0.185 A 
ATOM      4  S   LIG    1      157.759 189.055 158.690  0.00  0.00    +0.050 S 
ATOM      5  N   LIG    1      156.695 189.750 159.734  0.00  0.00    -0.187 NA
ENDROOT
BRANCH   1   9
ATOM      6  C   LIG    1      153.445 189.952 163.644  0.00  0.00    +0.120 A 
ATOM      7  C   LIG    1      154.810 189.965 163.929  0.00  0.00    +0.046 A 
ATOM      8  C   LIG    1      155.720 189.616 162.937  0.00  0.00    +0.015 A 
ATOM      9  C   LIG    1      155.291 189.246 161.648  0.00  0.00    +0.020 A 
ATOM     10  C   LIG    1      153.906 189.243 161.393  0.00  0.00    +0.015 A 
ATOM     11  C   LIG    1      152.992 189.591 162.381  0.00  0.00    +0.046 A 
BRANCH   6  13
ATOM     12  C   LIG    1      152.596 191.398 165.504  0.00  0.00    +0.277 C 
ATOM     13  O   LIG    1      152.496 190.287 164.582  0.00  0.00    -0.495 OA
ENDBRANCH   6  13
ENDBRANCH   1   9
BRANCH   3  14
ATOM     14  N   LIG    1      158.181 186.348 159.193  0.00  0.00    -0.259 N 
ATOM     15  H   LIG    1      157.853 185.910 158.327  0.00  0.00    +0.157 HD
ATOM     16  C   LIG    1      159.158 185.685 159.888  0.00  0.00    +0.254 C 
ATOM     17  O   LIG    1      159.557 186.183 160.929  0.00  0.00    -0.270 OA
BRANCH  16  18
ATOM     18  C   LIG    1      159.677 184.424 159.379  0.00  0.00    +0.089 A 
ATOM     19  C   LIG    1      160.651 184.181 158.447  0.00  0.00    +0.182 A 
ATOM     20 BR   LIG    1      161.761 185.304 157.411  0.00  0.00    -0.008 Br
ATOM     21  O   LIG    1      160.805 182.851 158.284  0.00  0.00    -0.456 OA
ATOM     22  C   LIG    1      159.931 182.228 159.111  0.00  0.00    +0.197 A 
ATOM     23  C   LIG    1      159.228 183.155 159.795  0.00  0.00    +0.055 A 
ENDBRANCH  16  18
ENDBRANCH   3  14
TORSDOF 4
