REMARK VINA RESULT:      -8.3      6.265      8.623
REMARK  Name = ZINC000049410085
REMARK                            x       y       z     vdW  Elec       q    Type
REMARK                         _______ _______ _______ _____ _____    ______ ____
ROOT
ATOM      1  C   LIG    1      166.562 143.568 147.730  0.00  0.00    +0.247 C 
ATOM      2  N   LIG    1      166.401 143.956 149.058  0.00  0.00    -0.297 N 
ATOM      3  C   LIG    1      167.492 144.587 149.818  0.00  0.00    +0.112 C 
ATOM      4  C   LIG    1      168.155 143.433 150.591  0.00  0.00    +0.064 C 
ATOM      5  C   LIG    1      167.100 142.745 151.478  0.00  0.00    +0.102 C 
ATOM      6  N   LIG    1      167.712 141.609 152.105  0.00  0.00    -0.290 N 
ATOM      7  H   LIG    1      167.900 140.785 151.529  0.00  0.00    +0.151 HD
ATOM      8  C   LIG    1      168.440 141.708 153.241  0.00  0.00    +0.247 C 
ATOM      9  O   LIG    1      169.169 140.755 153.476  0.00  0.00    -0.270 OA
ATOM     10  C   LIG    1      168.319 142.897 154.059  0.00  0.00    +0.058 A 
ATOM     11  C   LIG    1      169.080 143.118 155.216  0.00  0.00    +0.016 A 
ATOM     12  C   LIG    1      168.913 144.282 155.956  0.00  0.00    +0.021 A 
ATOM     13  C   LIG    1      167.975 145.240 155.548  0.00  0.00    +0.043 A 
ATOM     14 CL   LIG    1      167.772 146.690 156.478  0.00  0.00    -0.083 Cl
ATOM     15  C   LIG    1      167.207 145.038 154.404  0.00  0.00    +0.043 A 
ATOM     16  C   LIG    1      167.389 143.872 153.665  0.00  0.00    +0.042 A 
ATOM     17  N   LIG    1      166.629 143.654 152.516  0.00  0.00    -0.323 N 
ATOM     18  H   LIG    1      166.122 144.467 152.150  0.00  0.00    +0.148 HD
ATOM     19  C   LIG    1      165.910 142.235 150.654  0.00  0.00    +0.064 C 
ATOM     20  C   LIG    1      165.298 143.407 149.868  0.00  0.00    +0.112 C 
ATOM     21  O   LIG    1      165.867 142.642 147.324  0.00  0.00    -0.270 OA
ENDROOT
BRANCH   1  25
ATOM     22  C   LIG    1      171.261 143.935 146.053  0.00  0.00    +0.044 C 
ATOM     23  C   LIG    1      169.828 144.423 146.068  0.00  0.00    -0.049 A 
ATOM     24  C   LIG    1      168.876 143.787 146.859  0.00  0.00    +0.016 A 
ATOM     25  C   LIG    1      167.549 144.229 146.873  0.00  0.00    +0.037 A 
ATOM     26  C   LIG    1      167.183 145.305 146.053  0.00  0.00    +0.016 A 
ATOM     27  C   LIG    1      168.127 145.947 145.260  0.00  0.00    -0.049 A 
ATOM     28  C   LIG    1      167.726 147.105 144.372  0.00  0.00    +0.044 C 
ATOM     29  C   LIG    1      169.448 145.500 145.270  0.00  0.00    +0.006 A 
ENDBRANCH   1  25
TORSDOF 1
