REMARK VINA RESULT:      -7.0     93.929     95.986
REMARK  Name = 
REMARK                            x       y       z     vdW  Elec       q    Type
REMARK                         _______ _______ _______ _____ _____    ______ ____
ROOT
ATOM      1  C   LIG    1      187.337 178.999 161.913  0.00  0.00    +0.032 C 
ATOM      2  C   LIG    1      186.602 178.956 160.612  0.00  0.00    -0.006 A 
ATOM      3  C   LIG    1      185.368 179.604 160.465  0.00  0.00    +0.071 A 
ATOM      4  C   LIG    1      184.675 179.574 159.268  0.00  0.00    +0.033 A 
ATOM      5  C   LIG    1      185.214 178.892 158.207  0.00  0.00    +0.075 A 
ATOM      6  C   LIG    1      186.445 178.241 158.343  0.00  0.00    +0.016 A 
ATOM      7  C   LIG    1      187.122 178.282 159.543  0.00  0.00    -0.002 A 
ENDROOT
BRANCH   5   8
ATOM      8  N   LIG    1      184.544 178.834 156.971  0.00  0.00    -0.175 NA
ATOM      9  C   LIG    1      184.602 179.815 155.962  0.00  0.00    +0.269 C 
ATOM     10  O   LIG    1      185.290 180.836 156.136  0.00  0.00    -0.268 OA
BRANCH   9  11
ATOM     11  C   LIG    1      183.849 179.623 154.715  0.00  0.00    +0.055 A 
ATOM     12  C   LIG    1      184.006 178.489 153.949  0.00  0.00    +0.004 A 
ATOM     13  C   LIG    1      183.290 178.303 152.762  0.00  0.00    -0.003 A 
ATOM     14  C   LIG    1      182.405 179.256 152.324  0.00  0.00    -0.006 A 
ATOM     15  C   LIG    1      182.243 180.390 153.081  0.00  0.00    -0.003 A 
ATOM     16  C   LIG    1      182.958 180.577 154.270  0.00  0.00    +0.004 A 
BRANCH  14  17
ATOM     17  C   LIG    1      181.653 179.056 151.072  0.00  0.00    +0.099 C 
BRANCH  17  18
ATOM     18  N   LIG    1      181.015 180.231 150.572  0.00  0.00    -0.267 NA
ATOM     19  C   LIG    1      181.496 180.650 149.270  0.00  0.00    +0.090 C 
ATOM     20  C   LIG    1      181.184 179.613 148.211  0.00  0.00    +0.090 C 
ATOM     21  N   LIG    1      179.897 178.979 148.478  0.00  0.00    -0.269 NA
ATOM     22  C   LIG    1      179.215 178.644 147.265  0.00  0.00    +0.090 C 
ATOM     23  C   LIG    1      179.035 179.888 149.239  0.00  0.00    +0.090 C 
ATOM     24  C   LIG    1      179.594 180.031 150.619  0.00  0.00    +0.090 C 
ENDBRANCH  17  18
ENDBRANCH  14  17
ENDBRANCH   9  11
ENDBRANCH   5   8
BRANCH   3  25
ATOM     25  N   LIG    1      184.893 180.273 161.588  0.00  0.00    -0.178 NA
BRANCH  25  26
ATOM     26  C   LIG    1      183.584 180.498 162.019  0.00  0.00    +0.241 A 
ATOM     27  N   LIG    1      183.158 179.801 163.106  0.00  0.00    -0.212 NA
ATOM     28  C   LIG    1      181.951 179.892 163.646  0.00  0.00    +0.087 A 
ATOM     29  C   LIG    1      181.036 180.772 163.058  0.00  0.00    +0.040 A 
ATOM     30  C   LIG    1      181.460 181.482 161.955  0.00  0.00    +0.103 A 
ATOM     31  N   LIG    1      182.705 181.325 161.475  0.00  0.00    -0.211 NA
BRANCH  28  32
ATOM     32  C   LIG    1      181.533 179.125 164.814  0.00  0.00    +0.037 A 
ATOM     33  C   LIG    1      182.424 178.272 165.425  0.00  0.00    +0.100 A 
ATOM     34  N   LIG    1      182.048 177.547 166.521  0.00  0.00    -0.242 NA
ATOM     35  C   LIG    1      180.827 177.638 167.030  0.00  0.00    +0.099 A 
ATOM     36  C   LIG    1      179.889 178.477 166.462  0.00  0.00    +0.021 A 
ATOM     37  C   LIG    1      180.267 179.221 165.341  0.00  0.00    +0.005 A 
ENDBRANCH  28  32
ENDBRANCH  25  26
ENDBRANCH   3  25
TORSDOF 7
