REMARK VINA RESULT:      -6.0     43.483     44.884
REMARK  Name = ZINC000049399659
REMARK                            x       y       z     vdW  Elec       q    Type
REMARK                         _______ _______ _______ _____ _____    ______ ____
ROOT
ATOM      1  C   LIG    1      184.952 131.057 130.107  0.00  0.00    +0.173 C 
ENDROOT
BRANCH   1   4
ATOM      2  N   LIG    1      185.821 129.237 131.516  0.00  0.00    -0.282 N 
ATOM      3  H   LIG    1      186.308 130.014 131.986  0.00  0.00    +0.155 HD
ATOM      4  C   LIG    1      185.109 129.579 130.393  0.00  0.00    +0.228 C 
ATOM      5  O   LIG    1      184.639 128.730 129.664  0.00  0.00    -0.275 OA
BRANCH   2   7
ATOM      6  C   LIG    1      185.163 127.479 133.015  0.00  0.00    +0.141 A 
ATOM      7  C   LIG    1      186.093 127.957 132.079  0.00  0.00    +0.077 A 
ATOM      8  C   LIG    1      187.200 127.181 131.730  0.00  0.00    +0.047 A 
ATOM      9  C   LIG    1      187.377 125.936 132.336  0.00  0.00    +0.043 A 
ATOM     10 CL   LIG    1      188.745 124.962 131.918  0.00  0.00    -0.083 Cl
ATOM     11  C   LIG    1      186.457 125.463 133.277  0.00  0.00    +0.024 A 
ATOM     12  C   LIG    1      185.348 126.233 133.617  0.00  0.00    +0.049 A 
BRANCH   6  14
ATOM     13  C   LIG    1      182.677 127.893 133.125  0.00  0.00    +0.277 C 
ATOM     14  O   LIG    1      184.058 128.278 133.319  0.00  0.00    -0.493 OA
ENDBRANCH   6  14
ENDBRANCH   2   7
ENDBRANCH   1   4
BRANCH   1  15
ATOM     15  S   LIG    1      184.086 131.775 131.555  0.00  0.00    -0.077 S 
BRANCH  15  16
ATOM     16  C   LIG    1      185.294 132.822 132.234  0.00  0.00    +0.190 A 
ATOM     17  N   LIG    1      185.054 134.134 132.224  0.00  0.00    -0.207 NA
ATOM     18  C   LIG    1      185.969 134.936 132.743  0.00  0.00    +0.126 A 
ATOM     19  C   LIG    1      187.146 134.429 133.284  0.00  0.00    +0.063 A 
ATOM     20  C   LIG    1      187.337 133.065 133.257  0.00  0.00    +0.117 A 
ATOM     21  N   LIG    1      186.416 132.268 132.731  0.00  0.00    -0.230 NA
BRANCH  18  22
ATOM     22  N   LIG    1      185.731 136.306 132.743  0.00  0.00    -0.315 N 
ATOM     23  C   LIG    1      186.808 137.153 132.194  0.00  0.00    +0.106 C 
ATOM     24  C   LIG    1      186.662 138.525 132.877  0.00  0.00    +0.019 C 
ATOM     25  C   LIG    1      185.273 139.086 132.524  0.00  0.00    +0.003 C 
ATOM     26  C   LIG    1      184.183 138.135 133.046  0.00  0.00    +0.019 C 
ATOM     27  C   LIG    1      184.372 136.762 132.374  0.00  0.00    +0.106 C 
ENDBRANCH  18  22
ENDBRANCH  15  16
ENDBRANCH   1  15
TORSDOF 6
