REMARK VINA RESULT:      -6.4    105.915    107.426
REMARK  Name = ZINC000193546412
REMARK                            x       y       z     vdW  Elec       q    Type
REMARK                         _______ _______ _______ _____ _____    ______ ____
ROOT
ATOM      1  C   LIG    1      193.292  87.862 158.287  0.00  0.00    +0.171 A 
ATOM      2  N   LIG    1      192.813  86.586 158.132  0.00  0.00    -0.204 NA
ATOM      3  C   LIG    1      191.554  86.654 157.874  0.00  0.00    +0.185 A 
ATOM      4  S   LIG    1      190.930  88.248 157.812  0.00  0.00    +0.050 S 
ATOM      5  N   LIG    1      192.428  88.836 158.150  0.00  0.00    -0.187 NA
ENDROOT
BRANCH   1   9
ATOM      6  C   LIG    1      197.408  88.620 159.179  0.00  0.00    +0.120 A 
ATOM      7  C   LIG    1      196.830  89.187 158.042  0.00  0.00    +0.046 A 
ATOM      8  C   LIG    1      195.492  88.938 157.757  0.00  0.00    +0.015 A 
ATOM      9  C   LIG    1      194.705  88.123 158.594  0.00  0.00    +0.020 A 
ATOM     10  C   LIG    1      195.318  87.567 159.733  0.00  0.00    +0.015 A 
ATOM     11  C   LIG    1      196.656  87.813 160.023  0.00  0.00    +0.046 A 
BRANCH   6  13
ATOM     12  C   LIG    1      199.646  89.667 158.779  0.00  0.00    +0.277 C 
ATOM     13  O   LIG    1      198.725  88.829 159.514  0.00  0.00    -0.495 OA
ENDBRANCH   6  13
ENDBRANCH   1   9
BRANCH   3  14
ATOM     14  N   LIG    1      190.846  85.467 157.678  0.00  0.00    -0.259 N 
ATOM     15  H   LIG    1      190.764  85.178 156.699  0.00  0.00    +0.157 HD
ATOM     16  C   LIG    1      190.261  84.656 158.613  0.00  0.00    +0.254 C 
ATOM     17  O   LIG    1      190.336  84.987 159.786  0.00  0.00    -0.270 OA
BRANCH  16  18
ATOM     18  C   LIG    1      189.570  83.446 158.189  0.00  0.00    +0.089 A 
ATOM     19  C   LIG    1      188.231  83.155 158.165  0.00  0.00    +0.182 A 
ATOM     20 BR   LIG    1      186.685  84.131 158.638  0.00  0.00    -0.008 Br
ATOM     21  O   LIG    1      188.045  81.906 157.693  0.00  0.00    -0.456 OA
ATOM     22  C   LIG    1      189.263  81.384 157.410  0.00  0.00    +0.197 A 
ATOM     23  C   LIG    1      190.216  82.294 157.698  0.00  0.00    +0.055 A 
ENDBRANCH  16  18
ENDBRANCH   3  14
TORSDOF 4
