REMARK VINA RESULT:      -7.5      2.925      4.100
REMARK  Name = ZINC000049408611
REMARK                            x       y       z     vdW  Elec       q    Type
REMARK                         _______ _______ _______ _____ _____    ______ ____
ROOT
ATOM      1  N   LIG    1      168.863 149.806 147.004  0.00  0.00    -0.199 N 
ENDROOT
BRANCH   1   2
ATOM      2  C   LIG    1      168.127 151.000 147.112  0.00  0.00    +0.053 A 
ATOM      3  C   LIG    1      166.904 151.187 146.462  0.00  0.00    +0.044 A 
ATOM      4  C   LIG    1      166.223 152.389 146.629  0.00  0.00    +0.043 A 
ATOM      5 CL   LIG    1      164.705 152.635 145.834  0.00  0.00    -0.083 Cl
ATOM      6  C   LIG    1      166.752 153.398 147.440  0.00  0.00    +0.020 A 
ATOM      7  C   LIG    1      167.972 153.202 148.080  0.00  0.00    +0.003 A 
ATOM      8  C   LIG    1      168.665 152.006 147.917  0.00  0.00    +0.025 A 
ENDBRANCH   1   2
BRANCH   1  10
ATOM      9  O   LIG    1      171.231 150.008 146.208  0.00  0.00    -0.150 OA
ATOM     10  S   LIG    1      169.916 149.808 145.712  0.00  0.00    +0.076 S 
ATOM     11  O   LIG    1      169.453 150.742 144.749  0.00  0.00    -0.150 OA
BRANCH  10  12
ATOM     12  C   LIG    1      169.810 148.139 145.023  0.00  0.00    +0.125 A 
ATOM     13  C   LIG    1      170.916 147.536 144.480  0.00  0.00    +0.123 A 
ATOM     14  N   LIG    1      170.792 146.244 143.962  0.00  0.00    -0.287 N 
ATOM     15  C   LIG    1      171.708 145.455 143.407  0.00  0.00    +0.229 A 
ATOM     16  N   LIG    1      171.163 144.325 143.075  0.00  0.00    -0.137 NA
ATOM     17  N   LIG    1      169.843 144.375 143.422  0.00  0.00    -0.130 NA
ATOM     18  C   LIG    1      169.632 145.554 143.962  0.00  0.00    +0.161 A 
ATOM     19  C   LIG    1      168.470 146.177 144.503  0.00  0.00    +0.050 A 
ATOM     20  C   LIG    1      168.553 147.439 145.019  0.00  0.00    +0.034 A 
ENDBRANCH  10  12
ENDBRANCH   1  10
BRANCH   1  21
ATOM     21  C   LIG    1      169.650 149.434 148.188  0.00  0.00    +0.166 C 
BRANCH  21  22
ATOM     22  C   LIG    1      169.218 148.021 148.535  0.00  0.00    -0.028 A 
ATOM     23  C   LIG    1      167.892 147.741 148.867  0.00  0.00    +0.005 A 
ATOM     24  C   LIG    1      167.504 146.441 149.176  0.00  0.00    +0.000 A 
ATOM     25  C   LIG    1      168.439 145.412 149.155  0.00  0.00    +0.000 A 
ATOM     26  C   LIG    1      169.763 145.683 148.823  0.00  0.00    +0.000 A 
ATOM     27  C   LIG    1      170.150 146.983 148.512  0.00  0.00    +0.005 A 
ENDBRANCH  21  22
ENDBRANCH   1  21
TORSDOF 5
