REMARK VINA RESULT:      -5.6     49.154     52.783
REMARK  Name = 
REMARK                            x       y       z     vdW  Elec       q    Type
REMARK                         _______ _______ _______ _____ _____    ______ ____
ROOT
ATOM      1  C   LIG    1      164.080 105.130 171.453  0.00  0.00    -0.010 A 
ATOM      2  C   LIG    1      162.987 105.372 172.279  0.00  0.00    -0.007 A 
ATOM      3  C   LIG    1      162.930 104.888 173.553  0.00  0.00    -0.010 A 
ATOM      4  C   LIG    1      163.972 104.157 174.007  0.00  0.00    -0.006 A 
ATOM      5  C   LIG    1      165.123 103.867 173.237  0.00  0.00    +0.002 A 
ATOM      6  C   LIG    1      165.113 104.384 171.971  0.00  0.00    -0.006 A 
ENDROOT
BRANCH   1   8
ATOM      7  C   LIG    1      164.653 107.090 170.008  0.00  0.00    +0.020 C 
ATOM      8  C   LIG    1      164.060 105.702 170.090  0.00  0.00    +0.098 C 
ATOM      9  C   LIG    1      162.671 105.655 169.456  0.00  0.00    +0.020 C 
BRANCH   8  10
ATOM     10  C   LIG    1      164.877 104.839 169.187  0.00  0.00    +0.075 C 
ATOM     11  N   LIG    1      165.536 104.161 168.484  0.00  0.00    -0.196 NA
ENDBRANCH   8  10
ENDBRANCH   1   8
BRANCH   3  12
ATOM     12  C   LIG    1      161.744 105.120 174.445  0.00  0.00    +0.098 C 
ATOM     13  C   LIG    1      161.814 104.231 175.636  0.00  0.00    +0.020 C 
ATOM     14  C   LIG    1      160.502 104.924 173.591  0.00  0.00    +0.020 C 
BRANCH  12  15
ATOM     15  C   LIG    1      161.765 106.502 174.914  0.00  0.00    +0.075 C 
ATOM     16  N   LIG    1      161.784 107.620 175.292  0.00  0.00    -0.196 NA
ENDBRANCH  12  15
ENDBRANCH   3  12
BRANCH   5  17
ATOM     17  C   LIG    1      166.113 103.092 173.931  0.00  0.00    +0.156 C 
BRANCH  17  18
ATOM     18  N   LIG    1      165.753 102.284 175.032  0.00  0.00    -0.226 N 
ATOM     19  N   LIG    1      165.925 102.591 176.308  0.00  0.00    -0.145 NA
ATOM     20  C   LIG    1      165.512 101.573 177.075  0.00  0.00    +0.221 A 
ATOM     21  N   LIG    1      165.063 100.584 176.264  0.00  0.00    -0.201 NA
ATOM     22  C   LIG    1      165.218 101.039 175.007  0.00  0.00    +0.198 A 
ENDBRANCH  17  18
ENDBRANCH   5  17
TORSDOF 6
