REMARK VINA RESULT:      -6.6     60.827     63.393
REMARK  Name = ZINC000006087320
REMARK                            x       y       z     vdW  Elec       q    Type
REMARK                         _______ _______ _______ _____ _____    ______ ____
ROOT
ATOM      1  C   LIG    1      202.367 112.439 146.860  0.00  0.00    +0.222 C 
ENDROOT
BRANCH   1   2
ATOM      2  N   LIG    1      201.455 113.260 146.027  0.00  0.00    -0.290 N 
ATOM      3  C   LIG    1      200.863 112.727 144.895  0.00  0.00    +0.262 A 
ATOM      4  O   LIG    1      201.137 111.559 144.607  0.00  0.00    -0.267 OA
ATOM      5  C   LIG    1      199.982 113.575 144.122  0.00  0.00    +0.068 A 
ATOM      6  C   LIG    1      199.319 113.107 142.977  0.00  0.00    +0.035 A 
ATOM      7  C   LIG    1      198.484 113.959 142.262  0.00  0.00    +0.043 A 
ATOM      8 CL   LIG    1      197.670 113.379 140.850  0.00  0.00    -0.083 Cl
ATOM      9  C   LIG    1      198.301 115.281 142.674  0.00  0.00    +0.042 A 
ATOM     10  C   LIG    1      198.957 115.749 143.806  0.00  0.00    +0.068 A 
ATOM     11 CL   LIG    1      198.706 117.398 144.289  0.00  0.00    -0.081 Cl
ATOM     12  C   LIG    1      199.809 114.899 144.546  0.00  0.00    +0.096 A 
ATOM     13  N   LIG    1      200.489 115.353 145.692  0.00  0.00    -0.235 NA
ATOM     14  C   LIG    1      201.256 114.586 146.369  0.00  0.00    +0.203 A 
ENDBRANCH   1   2
BRANCH   1  17
ATOM     15  N   LIG    1      204.103 113.424 145.415  0.00  0.00    -0.284 N 
ATOM     16  H   LIG    1      203.339 113.348 144.720  0.00  0.00    +0.155 HD
ATOM     17  C   LIG    1      203.774 112.983 146.673  0.00  0.00    +0.237 C 
ATOM     18  O   LIG    1      204.556 113.039 147.598  0.00  0.00    -0.274 OA
BRANCH  15  20
ATOM     19  C   LIG    1      205.521 115.327 144.937  0.00  0.00    -0.026 A 
ATOM     20  C   LIG    1      205.333 113.933 144.921  0.00  0.00    +0.037 A 
ATOM     21  C   LIG    1      206.342 113.083 144.455  0.00  0.00    +0.023 A 
ATOM     22  C   LIG    1      207.532 113.621 143.980  0.00  0.00    +0.002 A 
ATOM     23  C   LIG    1      207.721 115.000 143.975  0.00  0.00    +0.000 A 
ATOM     24  C   LIG    1      206.721 115.844 144.452  0.00  0.00    +0.005 A 
BRANCH  19  26
ATOM     25  C   LIG    1      203.656 116.754 144.226  0.00  0.00    +0.009 C 
ATOM     26  C   LIG    1      204.463 116.297 145.449  0.00  0.00    +0.033 C 
ENDBRANCH  19  26
ENDBRANCH  15  20
ENDBRANCH   1  17
TORSDOF 4
