REMARK VINA RESULT:      -7.3      1.757      2.454
REMARK  Name = ZINC000000623204
REMARK                            x       y       z     vdW  Elec       q    Type
REMARK                         _______ _______ _______ _____ _____    ______ ____
ROOT
ATOM      1  C   LIG    1      169.400 148.279 145.896  0.00  0.00    +0.124 A 
ATOM      2  C   LIG    1      170.280 148.266 144.803  0.00  0.00    +0.067 A 
ATOM      3 CL   LIG    1      170.609 146.827 143.890  0.00  0.00    -0.082 Cl
ATOM      4  C   LIG    1      170.951 149.433 144.425  0.00  0.00    +0.023 A 
ATOM      5  C   LIG    1      170.760 150.612 145.130  0.00  0.00    +0.014 A 
ATOM      6  C   LIG    1      169.888 150.652 146.229  0.00  0.00    +0.039 A 
ATOM      7  C   LIG    1      169.222 149.474 146.596  0.00  0.00    +0.043 A 
ENDROOT
BRANCH   6   8
ATOM      8  C   LIG    1      169.671 151.879 146.995  0.00  0.00    +0.245 C 
ATOM      9  N   LIG    1      168.815 151.864 148.057  0.00  0.00    -0.305 N 
ATOM     10  H   LIG    1      168.332 150.998 148.312  0.00  0.00    +0.150 HD
ATOM     11  O   LIG    1      170.235 152.936 146.739  0.00  0.00    -0.270 OA
BRANCH   9  12
ATOM     12  C   LIG    1      168.483 153.044 148.830  0.00  0.00    +0.100 C 
ATOM     13  C   LIG    1      169.199 152.931 150.182  0.00  0.00    +0.033 C 
BRANCH  12  14
ATOM     14  C   LIG    1      166.976 152.998 149.046  0.00  0.00    -0.027 A 
ATOM     15  C   LIG    1      166.120 152.331 148.163  0.00  0.00    +0.005 A 
ATOM     16  C   LIG    1      164.746 152.319 148.387  0.00  0.00    +0.000 A 
ATOM     17  C   LIG    1      164.214 152.973 149.492  0.00  0.00    +0.000 A 
ATOM     18  C   LIG    1      165.057 153.639 150.375  0.00  0.00    +0.000 A 
ATOM     19  C   LIG    1      166.431 153.651 150.153  0.00  0.00    +0.005 A 
ENDBRANCH  12  14
ENDBRANCH   9  12
ENDBRANCH   6   8
BRANCH   1  20
ATOM     20  S   LIG    1      168.503 146.802 146.396  0.00  0.00    +0.062 S 
ATOM     21  O   LIG    1      167.750 147.108 147.563  0.00  0.00    -0.153 OA
ATOM     22  O   LIG    1      167.755 146.319 145.288  0.00  0.00    -0.153 OA
BRANCH  20  23
ATOM     23  N   LIG    1      169.675 145.690 146.793  0.00  0.00    -0.177 NA
BRANCH  23  25
ATOM     24  C   LIG    1      172.118 145.743 146.867  0.00  0.00    +0.022 C 
ATOM     25  C   LIG    1      170.826 146.044 147.641  0.00  0.00    +0.106 C 
ENDBRANCH  23  25
BRANCH  23  26
ATOM     26  C   LIG    1      169.290 144.280 146.877  0.00  0.00    +0.106 C 
ATOM     27  C   LIG    1      169.727 143.680 145.537  0.00  0.00    +0.022 C 
ENDBRANCH  23  26
ENDBRANCH  20  23
ENDBRANCH   1  20
TORSDOF 7
