REMARK VINA RESULT:      -6.6      4.498      8.153
REMARK  Name = ZINC000193545175
REMARK                            x       y       z     vdW  Elec       q    Type
REMARK                         _______ _______ _______ _____ _____    ______ ____
ROOT
ATOM      1  C   LIG    1      170.472 143.924 146.979  0.00  0.00    +0.171 A 
ATOM      2  N   LIG    1      170.162 145.255 147.075  0.00  0.00    -0.204 NA
ATOM      3  C   LIG    1      169.815 145.675 145.910  0.00  0.00    +0.185 A 
ATOM      4  S   LIG    1      169.855 144.478 144.685  0.00  0.00    +0.050 S 
ATOM      5  N   LIG    1      170.359 143.376 145.796  0.00  0.00    -0.187 NA
ENDROOT
BRANCH   1   8
ATOM      6  C   LIG    1      170.590 142.426 150.444  0.00  0.00    +0.121 A 
ATOM      7  C   LIG    1      170.167 143.165 149.341  0.00  0.00    +0.057 A 
ATOM      8  C   LIG    1      170.909 143.151 148.149  0.00  0.00    +0.023 A 
ATOM      9  C   LIG    1      172.082 142.372 148.112  0.00  0.00    +0.012 A 
ATOM     10  C   LIG    1      172.496 141.638 149.219  0.00  0.00    +0.004 A 
ATOM     11  C   LIG    1      171.750 141.662 150.392  0.00  0.00    +0.045 A 
BRANCH   6  13
ATOM     12  C   LIG    1      168.736 143.241 151.918  0.00  0.00    +0.277 C 
ATOM     13  O   LIG    1      169.887 142.417 151.628  0.00  0.00    -0.495 OA
ENDBRANCH   6  13
ENDBRANCH   1   8
BRANCH   3  14
ATOM     14  N   LIG    1      169.452 147.015 145.764  0.00  0.00    -0.259 N 
ATOM     15  H   LIG    1      168.504 147.236 146.082  0.00  0.00    +0.157 HD
ATOM     16  C   LIG    1      170.196 148.054 145.272  0.00  0.00    +0.254 C 
ATOM     17  O   LIG    1      171.337 147.818 144.907  0.00  0.00    -0.270 OA
BRANCH  16  18
ATOM     18  C   LIG    1      169.618 149.388 145.210  0.00  0.00    +0.089 A 
ATOM     19  C   LIG    1      170.114 150.587 145.650  0.00  0.00    +0.182 A 
ATOM     20 BR   LIG    1      171.715 151.086 146.521  0.00  0.00    -0.008 Br
ATOM     21  O   LIG    1      169.233 151.572 145.380  0.00  0.00    -0.456 OA
ATOM     22  C   LIG    1      168.162 151.013 144.767  0.00  0.00    +0.197 A 
ATOM     23  C   LIG    1      168.361 149.684 144.648  0.00  0.00    +0.055 A 
ENDBRANCH  16  18
ENDBRANCH   3  14
TORSDOF 4
