REMARK VINA RESULT:      -6.5     12.355     15.757
REMARK  Name = 
REMARK                            x       y       z     vdW  Elec       q    Type
REMARK                         _______ _______ _______ _____ _____    ______ ____
ROOT
ATOM      1  C   LIG    1      165.878 157.405 160.198  0.00  0.00    +0.155 A 
ATOM      2  C   LIG    1      165.133 156.288 159.855  0.00  0.00    +0.054 A 
ATOM      3  C   LIG    1      163.861 156.402 159.333  0.00  0.00    +0.089 A 
ATOM      4  C   LIG    1      163.101 155.281 158.983  0.00  0.00    +0.059 A 
ATOM      5  C   LIG    1      163.630 154.021 159.163  0.00  0.00    +0.174 A 
ATOM      6  C   LIG    1      164.902 153.933 159.686  0.00  0.00    +0.173 A 
ATOM      7  N   LIG    1      163.346 157.632 159.157  0.00  0.00    -0.224 NA
ATOM      8  C   LIG    1      164.063 158.719 159.488  0.00  0.00    +0.200 A 
ATOM      9  C   LIG    1      165.651 155.020 160.030  0.00  0.00    +0.044 A 
ATOM     10  N   LIG    1      165.302 158.595 159.996  0.00  0.00    -0.207 NA
ENDROOT
BRANCH   1  11
ATOM     11  N   LIG    1      167.169 157.202 160.725  0.00  0.00    -0.194 NA
BRANCH  11  14
ATOM     12  C   LIG    1      167.834 158.213 164.244  0.00  0.00    +0.044 A 
ATOM     13  C   LIG    1      167.393 157.536 163.126  0.00  0.00    +0.025 A 
ATOM     14  C   LIG    1      167.656 157.952 161.838  0.00  0.00    +0.073 A 
ATOM     15  C   LIG    1      168.394 159.099 161.630  0.00  0.00    +0.017 A 
ATOM     16  C   LIG    1      168.846 159.795 162.731  0.00  0.00    +0.002 A 
ATOM     17  C   LIG    1      168.573 159.364 164.007  0.00  0.00    +0.008 A 
BRANCH  12  19
ATOM     18  C   LIG    1      167.323 157.375 166.717  0.00  0.00    -0.009 C 
ATOM     19  C   LIG    1      167.547 157.761 165.588  0.00  0.00    -0.051 C 
ENDBRANCH  12  19
ENDBRANCH  11  14
ENDBRANCH   1  11
BRANCH   6  20
ATOM     20  O   LIG    1      165.416 152.650 159.859  0.00  0.00    -0.470 OA
BRANCH  20  21
ATOM     21  C   LIG    1      165.181 151.851 160.982  0.00  0.00    +0.237 C 
BRANCH  21  22
ATOM     22  C   LIG    1      164.693 150.475 160.585  0.00  0.00    +0.189 C 
BRANCH  22  23
ATOM     23  O   LIG    1      163.338 150.341 160.947  0.00  0.00    -0.347 OA
ATOM     24  C   LIG    1      162.667 149.460 160.114  0.00  0.00    +0.174 C 
ENDBRANCH  22  23
ENDBRANCH  21  22
ENDBRANCH  20  21
ENDBRANCH   6  20
BRANCH   5  25
ATOM     25  O   LIG    1      162.902 152.863 158.825  0.00  0.00    -0.470 OA
BRANCH  25  26
ATOM     26  C   LIG    1      162.736 152.501 157.468  0.00  0.00    +0.237 C 
BRANCH  26  27
ATOM     27  C   LIG    1      163.819 151.483 157.147  0.00  0.00    +0.189 C 
BRANCH  27  28
ATOM     28  O   LIG    1      163.962 151.286 155.789  0.00  0.00    -0.347 OA
ATOM     29  C   LIG    1      163.017 152.022 155.082  0.00  0.00    +0.174 C 
ENDBRANCH  27  28
ENDBRANCH  26  27
ENDBRANCH  25  26
ENDBRANCH   5  25
TORSDOF 11
