MODEL 1
REMARK VINA RESULT:      -7.7      0.000      0.000
REMARK  Name = ZINC000049409419
REMARK                            x       y       z     vdW  Elec       q    Type
REMARK                         _______ _______ _______ _____ _____    ______ ____
ROOT
ATOM      1  N   LIG    1      170.549 149.176 147.763  0.00  0.00    -0.282 N 
ATOM      2  H   LIG    1      169.541 149.234 147.983  0.00  0.00    +0.155 HD
ATOM      3  C   LIG    1      171.370 149.987 148.506  0.00  0.00    +0.226 C 
ATOM      4  O   LIG    1      172.576 149.879 148.450  0.00  0.00    -0.275 OA
ENDROOT
BRANCH   1   9
ATOM      5  C   LIG    1      171.454 146.333 144.796  0.00  0.00    +0.142 A 
ATOM      6  C   LIG    1      171.585 145.960 146.146  0.00  0.00    +0.084 A 
ATOM      7 CL   LIG    1      172.110 144.368 146.585  0.00  0.00    -0.080 Cl
ATOM      8  C   LIG    1      171.294 146.880 147.154  0.00  0.00    +0.050 A 
ATOM      9  C   LIG    1      170.869 148.166 146.809  0.00  0.00    +0.077 A 
ATOM     10  C   LIG    1      170.752 148.535 145.459  0.00  0.00    +0.145 A 
ATOM     11  C   LIG    1      171.040 147.620 144.448  0.00  0.00    +0.094 A 
BRANCH   5  13
ATOM     12  C   LIG    1      170.839 144.408 143.277  0.00  0.00    +0.277 C 
ATOM     13  O   LIG    1      171.752 145.389 143.818  0.00  0.00    -0.494 OA
ENDBRANCH   5  13
BRANCH  10  14
ATOM     14  O   LIG    1      170.349 149.841 145.167  0.00  0.00    -0.493 OA
ATOM     15  C   LIG    1      169.039 150.224 144.688  0.00  0.00    +0.277 C 
ENDBRANCH  10  14
ENDBRANCH   1   9
BRANCH   3  16
ATOM     16  C   LIG    1      170.711 150.997 149.409  0.00  0.00    +0.193 C 
BRANCH  16  17
ATOM     17  C   LIG    1      169.728 151.715 148.527  0.00  0.00    +0.226 A 
ATOM     18  O   LIG    1      168.454 151.453 148.594  0.00  0.00    -0.419 OA
ATOM     19  C   LIG    1      167.883 152.229 147.697  0.00  0.00    +0.255 A 
ATOM     20  N   LIG    1      168.780 152.946 147.095  0.00  0.00    -0.107 NA
ATOM     21  N   LIG    1      169.983 152.603 147.643  0.00  0.00    -0.112 NA
BRANCH  19  22
ATOM     22  C   LIG    1      166.441 152.196 147.505  0.00  0.00    +0.079 A 
ATOM     23  C   LIG    1      165.433 152.512 148.400  0.00  0.00    -0.031 A 
ATOM     24  C   LIG    1      165.664 152.979 149.822  0.00  0.00    +0.045 C 
ATOM     25  C   LIG    1      164.150 152.356 147.854  0.00  0.00    +0.012 A 
ATOM     26  C   LIG    1      164.165 151.927 146.558  0.00  0.00    +0.046 A 
ATOM     27  S   LIG    1      165.771 151.704 145.979  0.00  0.00    -0.092 S 
ENDBRANCH  19  22
ENDBRANCH  16  17
ENDBRANCH   3  16
TORSDOF 6
ENDMDL
MODEL 2
REMARK VINA RESULT:      -7.2      5.532      7.091
REMARK  Name = ZINC000049409419
REMARK                            x       y       z     vdW  Elec       q    Type
REMARK                         _______ _______ _______ _____ _____    ______ ____
ROOT
ATOM      1  N   LIG    1      168.481 145.268 145.983  0.00  0.00    -0.282 N 
ATOM      2  H   LIG    1      168.740 144.382 146.449  0.00  0.00    +0.155 HD
ATOM      3  C   LIG    1      167.342 145.228 145.217  0.00  0.00    +0.226 C 
ATOM      4  O   LIG    1      166.856 146.243 144.766  0.00  0.00    -0.275 OA
ENDROOT
BRANCH   1   9
ATOM      5  C   LIG    1      171.052 148.470 146.898  0.00  0.00    +0.142 A 
ATOM      6  C   LIG    1      169.903 148.285 147.687  0.00  0.00    +0.084 A 
ATOM      7 CL   LIG    1      169.546 149.350 149.006  0.00  0.00    -0.080 Cl
ATOM      8  C   LIG    1      169.029 147.233 147.409  0.00  0.00    +0.050 A 
ATOM      9  C   LIG    1      169.310 146.369 146.348  0.00  0.00    +0.077 A 
ATOM     10  C   LIG    1      170.453 146.566 145.556  0.00  0.00    +0.145 A 
ATOM     11  C   LIG    1      171.330 147.615 145.830  0.00  0.00    +0.094 A 
BRANCH   5  13
ATOM     12  C   LIG    1      171.888 150.836 146.589  0.00  0.00    +0.277 C 
ATOM     13  O   LIG    1      171.902 149.529 147.205  0.00  0.00    -0.494 OA
ENDBRANCH   5  13
BRANCH  10  14
ATOM     14  O   LIG    1      170.674 145.690 144.491  0.00  0.00    -0.493 OA
ATOM     15  C   LIG    1      171.340 146.029 143.253  0.00  0.00    +0.277 C 
ENDBRANCH  10  14
ENDBRANCH   1   9
BRANCH   3  16
ATOM     16  C   LIG    1      166.713 143.881 144.982  0.00  0.00    +0.193 C 
BRANCH  16  17
ATOM     17  C   LIG    1      165.590 143.804 145.979  0.00  0.00    +0.226 A 
ATOM     18  O   LIG    1      165.709 144.335 147.162  0.00  0.00    -0.419 OA
ATOM     19  C   LIG    1      164.574 144.084 147.781  0.00  0.00    +0.255 A 
ATOM     20  N   LIG    1      163.783 143.416 147.002  0.00  0.00    -0.107 NA
ATOM     21  N   LIG    1      164.455 143.236 145.826  0.00  0.00    -0.112 NA
BRANCH  19  22
ATOM     22  C   LIG    1      164.361 144.546 149.144  0.00  0.00    +0.079 A 
ATOM     23  C   LIG    1      164.754 143.961 150.336  0.00  0.00    -0.031 A 
ATOM     24  C   LIG    1      165.522 142.660 150.441  0.00  0.00    +0.045 C 
ATOM     25  C   LIG    1      164.364 144.703 151.462  0.00  0.00    +0.012 A 
ATOM     26  C   LIG    1      163.682 145.842 151.145  0.00  0.00    +0.046 A 
ATOM     27  S   LIG    1      163.503 146.027 149.443  0.00  0.00    -0.092 S 
ENDBRANCH  19  22
ENDBRANCH  16  17
ENDBRANCH   3  16
TORSDOF 6
ENDMDL
MODEL 3
REMARK VINA RESULT:      -6.4     38.817     41.258
REMARK  Name = ZINC000049409419
REMARK                            x       y       z     vdW  Elec       q    Type
REMARK                         _______ _______ _______ _____ _____    ______ ____
ROOT
ATOM      1  N   LIG    1      184.712 112.896 148.014  0.00  0.00    -0.282 N 
ATOM      2  H   LIG    1      184.080 112.580 148.769  0.00  0.00    +0.155 HD
ATOM      3  C   LIG    1      184.186 113.812 147.138  0.00  0.00    +0.226 C 
ATOM      4  O   LIG    1      184.886 114.373 146.323  0.00  0.00    -0.275 OA
ENDROOT
BRANCH   1   9
ATOM      5  C   LIG    1      188.676 111.566 148.496  0.00  0.00    +0.142 A 
ATOM      6  C   LIG    1      187.799 110.796 147.711  0.00  0.00    +0.084 A 
ATOM      7 CL   LIG    1      188.333 109.329 146.957  0.00  0.00    -0.080 Cl
ATOM      8  C   LIG    1      186.479 111.208 147.532  0.00  0.00    +0.050 A 
ATOM      9  C   LIG    1      186.040 112.391 148.135  0.00  0.00    +0.077 A 
ATOM     10  C   LIG    1      186.917 113.149 148.928  0.00  0.00    +0.145 A 
ATOM     11  C   LIG    1      188.239 112.742 149.108  0.00  0.00    +0.094 A 
BRANCH   5  13
ATOM     12  C   LIG    1      191.058 111.852 149.290  0.00  0.00    +0.277 C 
ATOM     13  O   LIG    1      189.986 111.124 148.651  0.00  0.00    -0.494 OA
ENDBRANCH   5  13
BRANCH  10  14
ATOM     14  O   LIG    1      186.423 114.309 149.529  0.00  0.00    -0.493 OA
ATOM     15  C   LIG    1      186.434 114.585 150.949  0.00  0.00    +0.277 C 
ENDBRANCH  10  14
ENDBRANCH   1   9
BRANCH   3  16
ATOM     16  C   LIG    1      182.713 114.106 147.248  0.00  0.00    +0.193 C 
BRANCH  16  17
ATOM     17  C   LIG    1      182.047 113.033 146.432  0.00  0.00    +0.226 A 
ATOM     18  O   LIG    1      181.780 111.868 146.950  0.00  0.00    -0.419 OA
ATOM     19  C   LIG    1      181.220 111.169 145.985  0.00  0.00    +0.255 A 
ATOM     20  N   LIG    1      181.147 111.882 144.906  0.00  0.00    -0.107 NA
ATOM     21  N   LIG    1      181.691 113.099 145.206  0.00  0.00    -0.112 NA
BRANCH  19  22
ATOM     22  C   LIG    1      180.787 109.800 146.224  0.00  0.00    +0.079 A 
ATOM     23  C   LIG    1      180.640 109.127 147.425  0.00  0.00    -0.031 A 
ATOM     24  C   LIG    1      180.918 109.731 148.786  0.00  0.00    +0.045 C 
ATOM     25  C   LIG    1      180.200 107.805 147.259  0.00  0.00    +0.012 A 
ATOM     26  C   LIG    1      180.009 107.462 145.951  0.00  0.00    +0.046 A 
ATOM     27  S   LIG    1      180.371 108.768 144.889  0.00  0.00    -0.092 S 
ENDBRANCH  19  22
ENDBRANCH  16  17
ENDBRANCH   3  16
TORSDOF 6
ENDMDL
MODEL 4
REMARK VINA RESULT:      -6.1      5.052      6.713
REMARK  Name = ZINC000049409419
REMARK                            x       y       z     vdW  Elec       q    Type
REMARK                         _______ _______ _______ _____ _____    ______ ____
ROOT
ATOM      1  N   LIG    1      165.369 149.140 150.046  0.00  0.00    -0.282 N 
ATOM      2  H   LIG    1      165.659 149.359 149.078  0.00  0.00    +0.155 HD
ATOM      3  C   LIG    1      165.110 150.222 150.850  0.00  0.00    +0.226 C 
ATOM      4  O   LIG    1      164.604 150.083 151.943  0.00  0.00    -0.275 OA
ENDROOT
BRANCH   1   9
ATOM      5  C   LIG    1      165.036 145.010 150.777  0.00  0.00    +0.142 A 
ATOM      6  C   LIG    1      163.860 145.754 150.580  0.00  0.00    +0.084 A 
ATOM      7 CL   LIG    1      162.304 144.993 150.638  0.00  0.00    -0.080 Cl
ATOM      8  C   LIG    1      163.935 147.125 150.336  0.00  0.00    +0.050 A 
ATOM      9  C   LIG    1      165.186 147.747 150.286  0.00  0.00    +0.077 A 
ATOM     10  C   LIG    1      166.357 147.000 150.496  0.00  0.00    +0.145 A 
ATOM     11  C   LIG    1      166.287 145.628 150.739  0.00  0.00    +0.094 A 
BRANCH   5  13
ATOM     12  C   LIG    1      165.840 142.622 150.566  0.00  0.00    +0.277 C 
ATOM     13  O   LIG    1      164.923 143.643 151.016  0.00  0.00    -0.494 OA
ENDBRANCH   5  13
BRANCH  10  14
ATOM     14  O   LIG    1      167.580 147.673 150.462  0.00  0.00    -0.493 OA
ATOM     15  C   LIG    1      168.566 147.564 149.410  0.00  0.00    +0.277 C 
ENDBRANCH  10  14
ENDBRANCH   1   9
BRANCH   3  16
ATOM     16  C   LIG    1      165.457 151.584 150.310  0.00  0.00    +0.193 C 
BRANCH  16  17
ATOM     17  C   LIG    1      165.980 151.324 148.924  0.00  0.00    +0.226 A 
ATOM     18  O   LIG    1      167.257 151.374 148.671  0.00  0.00    -0.419 OA
ATOM     19  C   LIG    1      167.375 151.117 147.386  0.00  0.00    +0.255 A 
ATOM     20  N   LIG    1      166.206 150.916 146.864  0.00  0.00    -0.107 NA
ATOM     21  N   LIG    1      165.299 151.055 147.876  0.00  0.00    -0.112 NA
BRANCH  19  22
ATOM     22  C   LIG    1      168.688 151.088 146.759  0.00  0.00    +0.079 A 
ATOM     23  C   LIG    1      169.017 150.878 145.430  0.00  0.00    -0.031 A 
ATOM     24  C   LIG    1      168.011 150.626 144.327  0.00  0.00    +0.045 C 
ATOM     25  C   LIG    1      170.400 150.919 145.198  0.00  0.00    +0.012 A 
ATOM     26  C   LIG    1      171.129 151.158 146.327  0.00  0.00    +0.046 A 
ATOM     27  S   LIG    1      170.120 151.338 147.711  0.00  0.00    -0.092 S 
ENDBRANCH  19  22
ENDBRANCH  16  17
ENDBRANCH   3  16
TORSDOF 6
ENDMDL
MODEL 5
REMARK VINA RESULT:      -6.1     63.742     66.055
REMARK  Name = ZINC000049409419
REMARK                            x       y       z     vdW  Elec       q    Type
REMARK                         _______ _______ _______ _____ _____    ______ ____
ROOT
ATOM      1  N   LIG    1      197.289  91.887 157.580  0.00  0.00    -0.282 N 
ATOM      2  H   LIG    1      196.765  91.285 156.922  0.00  0.00    +0.155 HD
ATOM      3  C   LIG    1      196.592  92.946 158.105  0.00  0.00    +0.226 C 
ATOM      4  O   LIG    1      197.050  93.613 159.007  0.00  0.00    -0.275 OA
ENDROOT
BRANCH   1   9
ATOM      5  C   LIG    1      201.050  90.261 158.536  0.00  0.00    +0.142 A 
ATOM      6  C   LIG    1      200.993  91.575 158.039  0.00  0.00    +0.084 A 
ATOM      7 CL   LIG    1      202.437  92.509 157.820  0.00  0.00    -0.080 Cl
ATOM      8  C   LIG    1      199.762  92.144 157.712  0.00  0.00    +0.050 A 
ATOM      9  C   LIG    1      198.593  91.398 157.887  0.00  0.00    +0.077 A 
ATOM     10  C   LIG    1      198.658  90.082 158.372  0.00  0.00    +0.145 A 
ATOM     11  C   LIG    1      199.886  89.510 158.702  0.00  0.00    +0.094 A 
BRANCH   5  13
ATOM     12  C   LIG    1      203.017  89.930 160.089  0.00  0.00    +0.277 C 
ATOM     13  O   LIG    1      202.296  89.728 158.854  0.00  0.00    -0.494 OA
ENDBRANCH   5  13
BRANCH  10  14
ATOM     14  O   LIG    1      197.463  89.371 158.504  0.00  0.00    -0.493 OA
ATOM     15  C   LIG    1      196.896  88.911 159.752  0.00  0.00    +0.277 C 
ENDBRANCH  10  14
ENDBRANCH   1   9
BRANCH   3  16
ATOM     16  C   LIG    1      195.229  93.230 157.529  0.00  0.00    +0.193 C 
BRANCH  16  17
ATOM     17  C   LIG    1      194.778  91.918 156.949  0.00  0.00    +0.226 A 
ATOM     18  O   LIG    1      194.670  91.759 155.661  0.00  0.00    -0.419 OA
ATOM     19  C   LIG    1      194.248  90.524 155.490  0.00  0.00    +0.255 A 
ATOM     20  N   LIG    1      194.099  89.942 156.638  0.00  0.00    -0.107 NA
ATOM     21  N   LIG    1      194.446  90.861 157.587  0.00  0.00    -0.112 NA
BRANCH  19  22
ATOM     22  C   LIG    1      194.021  90.003 154.150  0.00  0.00    +0.079 A 
ATOM     23  C   LIG    1      192.824  89.716 153.516  0.00  0.00    -0.031 A 
ATOM     24  C   LIG    1      191.456  89.905 154.139  0.00  0.00    +0.045 C 
ATOM     25  C   LIG    1      193.000  89.221 152.215  0.00  0.00    +0.012 A 
ATOM     26  C   LIG    1      194.312  89.128 151.848  0.00  0.00    +0.046 A 
ATOM     27  S   LIG    1      195.365  89.650 153.107  0.00  0.00    -0.092 S 
ENDBRANCH  19  22
ENDBRANCH  16  17
ENDBRANCH   3  16
TORSDOF 6
ENDMDL
MODEL 6
REMARK VINA RESULT:      -6.0     39.552     43.502
REMARK  Name = ZINC000049409419
REMARK                            x       y       z     vdW  Elec       q    Type
REMARK                         _______ _______ _______ _____ _____    ______ ____
ROOT
ATOM      1  N   LIG    1      198.488 116.635 143.839  0.00  0.00    -0.282 N 
ATOM      2  H   LIG    1      198.052 117.449 144.304  0.00  0.00    +0.155 HD
ATOM      3  C   LIG    1      197.789 116.106 142.782  0.00  0.00    +0.226 C 
ATOM      4  O   LIG    1      198.283 115.264 142.064  0.00  0.00    -0.275 OA
ENDROOT
BRANCH   1   9
ATOM      5  C   LIG    1      202.395 115.897 145.216  0.00  0.00    +0.142 A 
ATOM      6  C   LIG    1      201.387 114.967 145.525  0.00  0.00    +0.084 A 
ATOM      7 CL   LIG    1      201.739 113.546 146.453  0.00  0.00    -0.080 Cl
ATOM      8  C   LIG    1      200.081 115.182 145.084  0.00  0.00    +0.050 A 
ATOM      9  C   LIG    1      199.789 116.324 144.333  0.00  0.00    +0.077 A 
ATOM     10  C   LIG    1      200.798 117.256 144.039  0.00  0.00    +0.145 A 
ATOM     11  C   LIG    1      202.105 117.045 144.476  0.00  0.00    +0.094 A 
BRANCH   5  13
ATOM     12  C   LIG    1      204.809 116.553 145.579  0.00  0.00    +0.277 C 
ATOM     13  O   LIG    1      203.687 115.649 145.671  0.00  0.00    -0.494 OA
ENDBRANCH   5  13
BRANCH  10  14
ATOM     14  O   LIG    1      200.448 118.394 143.308  0.00  0.00    -0.493 OA
ATOM     15  C   LIG    1      200.811 118.648 141.932  0.00  0.00    +0.277 C 
ENDBRANCH  10  14
ENDBRANCH   1   9
BRANCH   3  16
ATOM     16  C   LIG    1      196.399 116.632 142.541  0.00  0.00    +0.193 C 
BRANCH  16  17
ATOM     17  C   LIG    1      196.341 117.927 143.304  0.00  0.00    +0.226 A 
ATOM     18  O   LIG    1      195.838 117.974 144.504  0.00  0.00    -0.419 OA
ATOM     19  C   LIG    1      195.925 119.233 144.877  0.00  0.00    +0.255 A 
ATOM     20  N   LIG    1      196.464 119.939 143.933  0.00  0.00    -0.107 NA
ATOM     21  N   LIG    1      196.732 119.078 142.908  0.00  0.00    -0.112 NA
BRANCH  19  22
ATOM     22  C   LIG    1      195.449 119.647 146.189  0.00  0.00    +0.079 A 
ATOM     23  C   LIG    1      194.159 119.933 146.600  0.00  0.00    -0.031 A 
ATOM     24  C   LIG    1      192.938 119.861 145.706  0.00  0.00    +0.045 C 
ATOM     25  C   LIG    1      194.086 120.305 147.951  0.00  0.00    +0.012 A 
ATOM     26  C   LIG    1      195.301 120.306 148.574  0.00  0.00    +0.046 A 
ATOM     27  S   LIG    1      196.568 119.846 147.503  0.00  0.00    -0.092 S 
ENDBRANCH  19  22
ENDBRANCH  16  17
ENDBRANCH   3  16
TORSDOF 6
ENDMDL
MODEL 7
REMARK VINA RESULT:      -5.8      6.941      9.135
REMARK  Name = ZINC000049409419
REMARK                            x       y       z     vdW  Elec       q    Type
REMARK                         _______ _______ _______ _____ _____    ______ ____
ROOT
ATOM      1  N   LIG    1      167.919 143.112 149.533  0.00  0.00    -0.282 N 
ATOM      2  H   LIG    1      168.309 143.245 150.482  0.00  0.00    +0.155 HD
ATOM      3  C   LIG    1      166.634 142.634 149.477  0.00  0.00    +0.226 C 
ATOM      4  O   LIG    1      166.023 142.601 148.430  0.00  0.00    -0.275 OA
ENDROOT
BRANCH   1   9
ATOM      5  C   LIG    1      170.554 144.312 146.479  0.00  0.00    +0.142 A 
ATOM      6  C   LIG    1      169.503 145.174 146.836  0.00  0.00    +0.084 A 
ATOM      7 CL   LIG    1      169.289 146.698 146.039  0.00  0.00    -0.080 Cl
ATOM      8  C   LIG    1      168.611 144.806 147.844  0.00  0.00    +0.050 A 
ATOM      9  C   LIG    1      168.776 143.580 148.494  0.00  0.00    +0.077 A 
ATOM     10  C   LIG    1      169.822 142.718 148.124  0.00  0.00    +0.145 A 
ATOM     11  C   LIG    1      170.716 143.081 147.118  0.00  0.00    +0.094 A 
BRANCH   5  13
ATOM     12  C   LIG    1      171.294 144.410 144.064  0.00  0.00    +0.277 C 
ATOM     13  O   LIG    1      171.425 144.713 145.470  0.00  0.00    -0.494 OA
ENDBRANCH   5  13
BRANCH  10  14
ATOM     14  O   LIG    1      169.928 141.492 148.786  0.00  0.00    -0.493 OA
ATOM     15  C   LIG    1      171.155 140.757 148.994  0.00  0.00    +0.277 C 
ENDBRANCH  10  14
ENDBRANCH   1   9
BRANCH   3  16
ATOM     16  C   LIG    1      166.010 142.175 150.768  0.00  0.00    +0.193 C 
BRANCH  16  17
ATOM     17  C   LIG    1      167.170 141.976 151.704  0.00  0.00    +0.226 A 
ATOM     18  O   LIG    1      167.648 142.970 152.397  0.00  0.00    -0.419 OA
ATOM     19  C   LIG    1      168.648 142.470 153.093  0.00  0.00    +0.255 A 
ATOM     20  N   LIG    1      168.782 141.208 152.833  0.00  0.00    -0.107 NA
ATOM     21  N   LIG    1      167.812 140.893 151.924  0.00  0.00    -0.112 NA
BRANCH  19  22
ATOM     22  C   LIG    1      169.415 143.319 153.992  0.00  0.00    +0.079 A 
ATOM     23  C   LIG    1      170.221 144.404 153.694  0.00  0.00    -0.031 A 
ATOM     24  C   LIG    1      170.460 144.937 152.296  0.00  0.00    +0.045 C 
ATOM     25  C   LIG    1      170.808 144.978 154.832  0.00  0.00    +0.012 A 
ATOM     26  C   LIG    1      170.461 144.346 155.992  0.00  0.00    +0.046 A 
ATOM     27  S   LIG    1      169.398 143.022 155.704  0.00  0.00    -0.092 S 
ENDBRANCH  19  22
ENDBRANCH  16  17
ENDBRANCH   3  16
TORSDOF 6
ENDMDL
MODEL 8
REMARK VINA RESULT:      -5.8     44.653     47.290
REMARK  Name = ZINC000049409419
REMARK                            x       y       z     vdW  Elec       q    Type
REMARK                         _______ _______ _______ _____ _____    ______ ____
ROOT
ATOM      1  N   LIG    1      198.837 112.672 143.452  0.00  0.00    -0.282 N 
ATOM      2  H   LIG    1      198.130 113.385 143.699  0.00  0.00    +0.155 HD
ATOM      3  C   LIG    1      198.421 111.694 142.584  0.00  0.00    +0.226 C 
ATOM      4  O   LIG    1      199.209 110.910 142.099  0.00  0.00    -0.275 OA
ENDROOT
BRANCH   1   9
ATOM      5  C   LIG    1      202.688 113.609 144.865  0.00  0.00    +0.142 A 
ATOM      6  C   LIG    1      201.903 112.707 145.605  0.00  0.00    +0.084 A 
ATOM      7 CL   LIG    1      202.500 111.996 147.068  0.00  0.00    -0.080 Cl
ATOM      8  C   LIG    1      200.621 112.376 145.164  0.00  0.00    +0.050 A 
ATOM      9  C   LIG    1      200.132 112.944 143.984  0.00  0.00    +0.077 A 
ATOM     10  C   LIG    1      200.917 113.853 143.257  0.00  0.00    +0.145 A 
ATOM     11  C   LIG    1      202.199 114.187 143.692  0.00  0.00    +0.094 A 
BRANCH   5  13
ATOM     12  C   LIG    1      204.627 115.193 145.219  0.00  0.00    +0.277 C 
ATOM     13  O   LIG    1      203.962 113.915 145.334  0.00  0.00    -0.494 OA
ENDBRANCH   5  13
BRANCH  10  14
ATOM     14  O   LIG    1      200.372 114.413 142.099  0.00  0.00    -0.493 OA
ATOM     15  C   LIG    1      201.131 114.958 140.995  0.00  0.00    +0.277 C 
ENDBRANCH  10  14
ENDBRANCH   1   9
BRANCH   3  16
ATOM     16  C   LIG    1      196.955 111.651 142.242  0.00  0.00    +0.193 C 
BRANCH  16  17
ATOM     17  C   LIG    1      196.796 112.634 141.115  0.00  0.00    +0.226 A 
ATOM     18  O   LIG    1      197.615 113.638 140.983  0.00  0.00    -0.419 OA
ATOM     19  C   LIG    1      197.198 114.301 139.925  0.00  0.00    +0.255 A 
ATOM     20  N   LIG    1      196.152 113.722 139.423  0.00  0.00    -0.107 NA
ATOM     21  N   LIG    1      195.895 112.634 140.208  0.00  0.00    -0.112 NA
BRANCH  19  22
ATOM     22  C   LIG    1      197.898 115.497 139.482  0.00  0.00    +0.079 A 
ATOM     23  C   LIG    1      198.038 116.715 140.124  0.00  0.00    -0.031 A 
ATOM     24  C   LIG    1      197.453 117.041 141.484  0.00  0.00    +0.045 C 
ATOM     25  C   LIG    1      198.786 117.641 139.382  0.00  0.00    +0.012 A 
ATOM     26  C   LIG    1      199.219 117.146 138.185  0.00  0.00    +0.046 A 
ATOM     27  S   LIG    1      198.710 115.519 137.946  0.00  0.00    -0.092 S 
ENDBRANCH  19  22
ENDBRANCH  16  17
ENDBRANCH   3  16
TORSDOF 6
ENDMDL
MODEL 9
REMARK VINA RESULT:      -5.7      5.216      8.278
REMARK  Name = ZINC000049409419
REMARK                            x       y       z     vdW  Elec       q    Type
REMARK                         _______ _______ _______ _____ _____    ______ ____
ROOT
ATOM      1  N   LIG    1      167.415 150.907 149.023  0.00  0.00    -0.282 N 
ATOM      2  H   LIG    1      167.955 150.395 149.740  0.00  0.00    +0.155 HD
ATOM      3  C   LIG    1      167.320 150.296 147.798  0.00  0.00    +0.226 C 
ATOM      4  O   LIG    1      166.575 150.721 146.941  0.00  0.00    -0.275 OA
ENDROOT
BRANCH   1   9
ATOM      5  C   LIG    1      165.731 154.491 150.447  0.00  0.00    +0.142 A 
ATOM      6  C   LIG    1      164.919 153.344 150.388  0.00  0.00    +0.084 A 
ATOM      7 CL   LIG    1      163.260 153.400 150.885  0.00  0.00    -0.080 Cl
ATOM      8  C   LIG    1      165.446 152.141 149.919  0.00  0.00    +0.050 A 
ATOM      9  C   LIG    1      166.784 152.086 149.517  0.00  0.00    +0.077 A 
ATOM     10  C   LIG    1      167.586 153.238 149.568  0.00  0.00    +0.145 A 
ATOM     11  C   LIG    1      167.064 154.443 150.037  0.00  0.00    +0.094 A 
BRANCH   5  13
ATOM     12  C   LIG    1      165.678 156.477 152.010  0.00  0.00    +0.277 C 
ATOM     13  O   LIG    1      165.171 155.674 150.922  0.00  0.00    -0.494 OA
ENDBRANCH   5  13
BRANCH  10  14
ATOM     14  O   LIG    1      168.908 153.137 149.130  0.00  0.00    -0.493 OA
ATOM     15  C   LIG    1      170.031 152.732 149.946  0.00  0.00    +0.277 C 
ENDBRANCH  10  14
ENDBRANCH   1   9
BRANCH   3  16
ATOM     16  C   LIG    1      168.158 149.065 147.572  0.00  0.00    +0.193 C 
BRANCH  16  17
ATOM     17  C   LIG    1      167.838 148.166 148.734  0.00  0.00    +0.226 A 
ATOM     18  O   LIG    1      166.823 147.351 148.689  0.00  0.00    -0.419 OA
ATOM     19  C   LIG    1      166.815 146.729 149.849  0.00  0.00    +0.255 A 
ATOM     20  N   LIG    1      167.794 147.151 150.586  0.00  0.00    -0.107 NA
ATOM     21  N   LIG    1      168.458 148.091 149.850  0.00  0.00    -0.112 NA
BRANCH  19  22
ATOM     22  C   LIG    1      165.798 145.730 150.142  0.00  0.00    +0.079 A 
ATOM     23  C   LIG    1      164.708 145.815 150.990  0.00  0.00    -0.031 A 
ATOM     24  C   LIG    1      164.356 147.036 151.814  0.00  0.00    +0.045 C 
ATOM     25  C   LIG    1      163.944 144.639 151.017  0.00  0.00    +0.012 A 
ATOM     26  C   LIG    1      164.435 143.660 150.202  0.00  0.00    +0.046 A 
ATOM     27  S   LIG    1      165.859 144.169 149.379  0.00  0.00    -0.092 S 
ENDBRANCH  19  22
ENDBRANCH  16  17
ENDBRANCH   3  16
TORSDOF 6
ENDMDL
