REMARK VINA RESULT:      -7.1     46.375     49.612
REMARK  Name = ZINC000000622956
REMARK                            x       y       z     vdW  Elec       q    Type
REMARK                         _______ _______ _______ _____ _____    ______ ____
ROOT
ATOM      1  C   LIG    1      161.945 105.787 172.092  0.00  0.00    +0.271 C 
ATOM      2  N   LIG    1      162.356 107.164 171.958  0.00  0.00    -0.157 N 
ATOM      3  C   LIG    1      162.453 107.535 170.701  0.00  0.00    +0.250 C 
ATOM      4  C   LIG    1      162.826 108.932 170.225  0.00  0.00    +0.124 C 
ATOM      5  C   LIG    1      161.556 109.576 169.623  0.00  0.00    +0.012 C 
ATOM      6  C   LIG    1      161.320 109.033 168.202  0.00  0.00    +0.004 C 
ATOM      7  C   LIG    1      160.915 107.547 168.100  0.00  0.00    +0.045 C 
ATOM      8  C   LIG    1      162.118 106.644 168.435  0.00  0.00    +0.236 C 
ATOM      9  N   LIG    1      162.161 106.543 169.899  0.00  0.00    -0.258 N 
ATOM     10  C   LIG    1      161.771 105.317 170.627  0.00  0.00    +0.323 C 
ENDROOT
BRANCH   1  11
ATOM     11  C   LIG    1      163.002 104.951 172.823  0.00  0.00    +0.034 A 
ATOM     12  C   LIG    1      162.767 104.443 174.114  0.00  0.00    +0.060 A 
ATOM     13  C   LIG    1      163.756 103.685 174.721  0.00  0.00    +0.167 A 
ATOM     14  O   LIG    1      163.709 103.122 175.947  0.00  0.00    -0.453 OA
ATOM     15  C   LIG    1      165.000 102.409 176.121  0.00  0.00    +0.466 C 
ATOM     16  O   LIG    1      165.752 102.662 174.868  0.00  0.00    -0.453 OA
ATOM     17  C   LIG    1      164.944 103.416 174.094  0.00  0.00    +0.166 A 
ATOM     18  C   LIG    1      165.207 103.892 172.820  0.00  0.00    +0.050 A 
ATOM     19  C   LIG    1      164.228 104.659 172.186  0.00  0.00    +0.014 A 
ENDBRANCH   1  11
BRANCH   2  20
ATOM     20  C   LIG    1      162.541 108.031 173.062  0.00  0.00    +0.124 A 
ATOM     21  C   LIG    1      161.493 108.874 173.428  0.00  0.00    +0.050 A 
ATOM     22  C   LIG    1      161.662 109.734 174.510  0.00  0.00    +0.024 A 
ATOM     23  C   LIG    1      162.873 109.742 175.210  0.00  0.00    +0.041 A 
ATOM     24 CL   LIG    1      163.080 110.813 176.553  0.00  0.00    -0.084 Cl
ATOM     25  C   LIG    1      163.918 108.893 174.830  0.00  0.00    +0.024 A 
ATOM     26  C   LIG    1      163.754 108.031 173.749  0.00  0.00    +0.050 A 
ENDBRANCH   2  20
BRANCH   1  27
ATOM     27  O   LIG    1      160.698 105.800 172.774  0.00  0.00    -0.347 OA
ATOM     28  H   LIG    1      160.856 105.515 173.686  0.00  0.00    +0.215 HD
ENDBRANCH   1  27
TORSDOF 3
