REMARK VINA RESULT:      -7.0     47.377     50.623
REMARK  Name = ZINC000000622958
REMARK                            x       y       z     vdW  Elec       q    Type
REMARK                         _______ _______ _______ _____ _____    ______ ____
ROOT
ATOM      1  C   LIG    1      207.890 112.584 148.025  0.00  0.00    +0.271 C 
ATOM      2  N   LIG    1      208.593 111.576 147.272  0.00  0.00    -0.157 N 
ATOM      3  C   LIG    1      209.240 110.731 148.043  0.00  0.00    +0.250 C 
ATOM      4  C   LIG    1      210.080 109.560 147.553  0.00  0.00    +0.124 C 
ATOM      5  C   LIG    1      209.317 108.261 147.899  0.00  0.00    +0.012 C 
ATOM      6  C   LIG    1      209.515 107.923 149.389  0.00  0.00    +0.004 C 
ATOM      7  C   LIG    1      208.843 108.878 150.399  0.00  0.00    +0.045 C 
ATOM      8  C   LIG    1      209.582 110.231 150.424  0.00  0.00    +0.236 C 
ATOM      9  N   LIG    1      209.042 111.016 149.305  0.00  0.00    -0.258 N 
ATOM     10  C   LIG    1      208.103 112.145 149.496  0.00  0.00    +0.323 C 
ENDROOT
BRANCH   1  11
ATOM     11  C   LIG    1      206.405 112.629 147.651  0.00  0.00    +0.034 A 
ATOM     12  C   LIG    1      205.897 113.749 146.969  0.00  0.00    +0.060 A 
ATOM     13  C   LIG    1      204.551 113.780 146.642  0.00  0.00    +0.167 A 
ATOM     14  O   LIG    1      203.896 114.770 145.999  0.00  0.00    -0.453 OA
ATOM     15  C   LIG    1      202.483 114.324 145.897  0.00  0.00    +0.466 C 
ATOM     16  O   LIG    1      202.450 112.993 146.548  0.00  0.00    -0.453 OA
ATOM     17  C   LIG    1      203.711 112.747 146.964  0.00  0.00    +0.166 A 
ATOM     18  C   LIG    1      204.175 111.625 147.632  0.00  0.00    +0.050 A 
ATOM     19  C   LIG    1      205.529 111.571 147.976  0.00  0.00    +0.014 A 
ENDBRANCH   1  11
BRANCH   2  20
ATOM     20  C   LIG    1      208.521 111.487 145.857  0.00  0.00    +0.124 A 
ATOM     21  C   LIG    1      209.363 112.276 145.073  0.00  0.00    +0.050 A 
ATOM     22  C   LIG    1      209.292 112.171 143.686  0.00  0.00    +0.024 A 
ATOM     23  C   LIG    1      208.387 111.283 143.098  0.00  0.00    +0.041 A 
ATOM     24 CL   LIG    1      208.304 111.154 141.375  0.00  0.00    -0.084 Cl
ATOM     25  C   LIG    1      207.547 110.497 143.895  0.00  0.00    +0.024 A 
ATOM     26  C   LIG    1      207.612 110.598 145.281  0.00  0.00    +0.050 A 
ENDBRANCH   2  20
BRANCH   1  27
ATOM     27  O   LIG    1      208.568 113.807 147.772  0.00  0.00    -0.347 OA
ATOM     28  H   LIG    1      208.866 113.796 146.850  0.00  0.00    +0.215 HD
ENDBRANCH   1  27
TORSDOF 3
