MODEL 1
REMARK VINA RESULT:      -4.5      0.000      0.000
REMARK  Name = 
REMARK                            x       y       z     vdW  Elec       q    Type
REMARK                         _______ _______ _______ _____ _____    ______ ____
ROOT
ATOM      1  C   LIG    1      166.417 155.882 150.767  0.00  0.00    +0.160 A 
ATOM      2  N   LIG    1      167.618 155.572 150.251  0.00  0.00    -0.236 NA
ATOM      3  C   LIG    1      167.926 154.337 149.832  0.00  0.00    +0.120 A 
ATOM      4  C   LIG    1      167.016 153.303 149.906  0.00  0.00    +0.120 A 
ATOM      5  N   LIG    1      165.811 153.600 150.420  0.00  0.00    -0.239 NA
ATOM      6  C   LIG    1      165.499 154.839 150.842  0.00  0.00    +0.123 A 
ENDROOT
BRANCH   1   8
ATOM      7  N   LIG    1      166.782 158.278 150.925  0.00  0.00    -0.101 NA
ATOM      8  C   LIG    1      166.100 157.229 151.217  0.00  0.00    +0.316 C 
ATOM      9  O   LIG    1      164.986 157.404 152.018  0.00  0.00    -0.262 OA
ENDBRANCH   1   8
TORSDOF 1
ENDMDL
MODEL 2
REMARK VINA RESULT:      -4.3     78.536     79.753
REMARK  Name = 
REMARK                            x       y       z     vdW  Elec       q    Type
REMARK                         _______ _______ _______ _____ _____    ______ ____
ROOT
ATOM      1  C   LIG    1      193.479  81.429 161.932  0.00  0.00    +0.160 A 
ATOM      2  N   LIG    1      194.589  80.703 162.150  0.00  0.00    -0.236 NA
ATOM      3  C   LIG    1      195.808  81.254 162.226  0.00  0.00    +0.120 A 
ATOM      4  C   LIG    1      195.995  82.613 162.086  0.00  0.00    +0.120 A 
ATOM      5  N   LIG    1      194.893  83.351 161.868  0.00  0.00    -0.239 NA
ATOM      6  C   LIG    1      193.667  82.800 161.790  0.00  0.00    +0.123 A 
ENDROOT
BRANCH   1   8
ATOM      7  N   LIG    1      191.920  79.574 162.079  0.00  0.00    -0.101 NA
ATOM      8  C   LIG    1      192.163  80.813 161.851  0.00  0.00    +0.316 C 
ATOM      9  O   LIG    1      191.089  81.614 161.505  0.00  0.00    -0.262 OA
ENDBRANCH   1   8
TORSDOF 1
ENDMDL
MODEL 3
REMARK VINA RESULT:      -4.3      1.948      2.461
REMARK  Name = 
REMARK                            x       y       z     vdW  Elec       q    Type
REMARK                         _______ _______ _______ _____ _____    ______ ____
ROOT
ATOM      1  C   LIG    1      167.111 154.654 149.614  0.00  0.00    +0.160 A 
ATOM      2  N   LIG    1      168.293 154.202 150.066  0.00  0.00    -0.236 NA
ATOM      3  C   LIG    1      169.080 153.393 149.343  0.00  0.00    +0.120 A 
ATOM      4  C   LIG    1      168.717 152.974 148.080  0.00  0.00    +0.120 A 
ATOM      5  N   LIG    1      167.538 153.419 147.616  0.00  0.00    -0.239 NA
ATOM      6  C   LIG    1      166.745 154.232 148.339  0.00  0.00    +0.123 A 
ENDROOT
BRANCH   1   8
ATOM      7  N   LIG    1      165.206 155.165 151.030  0.00  0.00    -0.101 NA
ATOM      8  C   LIG    1      166.270 155.532 150.413  0.00  0.00    +0.316 C 
ATOM      9  O   LIG    1      166.634 156.863 150.521  0.00  0.00    -0.262 OA
ENDBRANCH   1   8
TORSDOF 1
ENDMDL
MODEL 4
REMARK VINA RESULT:      -4.2      6.918      8.827
REMARK  Name = 
REMARK                            x       y       z     vdW  Elec       q    Type
REMARK                         _______ _______ _______ _____ _____    ______ ____
ROOT
ATOM      1  C   LIG    1      162.021 162.093 151.351  0.00  0.00    +0.160 A 
ATOM      2  N   LIG    1      162.558 163.316 151.205  0.00  0.00    -0.236 NA
ATOM      3  C   LIG    1      161.877 164.345 150.684  0.00  0.00    +0.120 A 
ATOM      4  C   LIG    1      160.570 164.207 150.266  0.00  0.00    +0.120 A 
ATOM      5  N   LIG    1      160.020 162.989 150.406  0.00  0.00    -0.239 NA
ATOM      6  C   LIG    1      160.703 161.953 150.929  0.00  0.00    +0.123 A 
ENDROOT
BRANCH   1   8
ATOM      7  N   LIG    1      162.804 160.681 153.165  0.00  0.00    -0.101 NA
ATOM      8  C   LIG    1      162.777 160.986 151.918  0.00  0.00    +0.316 C 
ATOM      9  O   LIG    1      163.524 160.199 151.060  0.00  0.00    -0.262 OA
ENDBRANCH   1   8
TORSDOF 1
ENDMDL
MODEL 5
REMARK VINA RESULT:      -4.2     44.803     45.894
REMARK  Name = 
REMARK                            x       y       z     vdW  Elec       q    Type
REMARK                         _______ _______ _______ _____ _____    ______ ____
ROOT
ATOM      1  C   LIG    1      182.895 113.117 145.963  0.00  0.00    +0.160 A 
ATOM      2  N   LIG    1      183.926 112.283 145.744  0.00  0.00    -0.236 NA
ATOM      3  C   LIG    1      185.188 112.596 146.069  0.00  0.00    +0.120 A 
ATOM      4  C   LIG    1      185.503 113.803 146.655  0.00  0.00    +0.120 A 
ATOM      5  N   LIG    1      184.482 114.646 146.881  0.00  0.00    -0.239 NA
ATOM      6  C   LIG    1      183.213 114.335 146.555  0.00  0.00    +0.123 A 
ENDROOT
BRANCH   1   8
ATOM      7  N   LIG    1      181.193 111.685 144.989  0.00  0.00    -0.101 NA
ATOM      8  C   LIG    1      181.531 112.760 145.603  0.00  0.00    +0.316 C 
ATOM      9  O   LIG    1      180.517 113.637 145.944  0.00  0.00    -0.262 OA
ENDBRANCH   1   8
TORSDOF 1
ENDMDL
MODEL 6
REMARK VINA RESULT:      -4.2     72.380     73.573
REMARK  Name = 
REMARK                            x       y       z     vdW  Elec       q    Type
REMARK                         _______ _______ _______ _____ _____    ______ ____
ROOT
ATOM      1  C   LIG    1      198.282  93.776 126.611  0.00  0.00    +0.160 A 
ATOM      2  N   LIG    1      198.354  93.153 125.422  0.00  0.00    -0.236 NA
ATOM      3  C   LIG    1      198.091  93.775 124.265  0.00  0.00    +0.120 A 
ATOM      4  C   LIG    1      197.729  95.106 124.228  0.00  0.00    +0.120 A 
ATOM      5  N   LIG    1      197.654  95.741 125.410  0.00  0.00    -0.239 NA
ATOM      6  C   LIG    1      197.918  95.118 126.574  0.00  0.00    +0.123 A 
ENDROOT
BRANCH   1   8
ATOM      7  N   LIG    1      199.724  92.628 128.193  0.00  0.00    -0.101 NA
ATOM      8  C   LIG    1      198.571  93.083 127.858  0.00  0.00    +0.316 C 
ATOM      9  O   LIG    1      197.535  92.897 128.755  0.00  0.00    -0.262 OA
ENDBRANCH   1   8
TORSDOF 1
ENDMDL
MODEL 7
REMARK VINA RESULT:      -4.2     58.530     59.198
REMARK  Name = 
REMARK                            x       y       z     vdW  Elec       q    Type
REMARK                         _______ _______ _______ _____ _____    ______ ____
ROOT
ATOM      1  C   LIG    1      188.838 100.897 148.563  0.00  0.00    +0.160 A 
ATOM      2  N   LIG    1      188.201  99.915 147.903  0.00  0.00    -0.236 NA
ATOM      3  C   LIG    1      187.020  99.425 148.305  0.00  0.00    +0.120 A 
ATOM      4  C   LIG    1      186.384  99.908 149.429  0.00  0.00    +0.120 A 
ATOM      5  N   LIG    1      187.010 100.890 150.098  0.00  0.00    -0.239 NA
ATOM      6  C   LIG    1      188.196 101.385 149.698  0.00  0.00    +0.123 A 
ENDROOT
BRANCH   1   8
ATOM      7  N   LIG    1      190.558 101.343 146.908  0.00  0.00    -0.101 NA
ATOM      8  C   LIG    1      190.120 101.417 148.113  0.00  0.00    +0.316 C 
ATOM      9  O   LIG    1      190.935 102.039 149.043  0.00  0.00    -0.262 OA
ENDBRANCH   1   8
TORSDOF 1
ENDMDL
MODEL 8
REMARK VINA RESULT:      -4.2     10.917     12.121
REMARK  Name = 
REMARK                            x       y       z     vdW  Elec       q    Type
REMARK                         _______ _______ _______ _____ _____    ______ ____
ROOT
ATOM      1  C   LIG    1      164.131 144.325 148.395  0.00  0.00    +0.160 A 
ATOM      2  N   LIG    1      163.684 145.592 148.433  0.00  0.00    -0.236 NA
ATOM      3  C   LIG    1      163.337 146.201 149.575  0.00  0.00    +0.120 A 
ATOM      4  C   LIG    1      163.422 145.555 150.790  0.00  0.00    +0.120 A 
ATOM      5  N   LIG    1      163.867 144.288 150.767  0.00  0.00    -0.239 NA
ATOM      6  C   LIG    1      164.216 143.673 149.621  0.00  0.00    +0.123 A 
ENDROOT
BRANCH   1   8
ATOM      7  N   LIG    1      163.882 143.829 146.031  0.00  0.00    -0.101 NA
ATOM      8  C   LIG    1      164.503 143.680 147.145  0.00  0.00    +0.316 C 
ATOM      9  O   LIG    1      165.605 142.844 147.145  0.00  0.00    -0.262 OA
ENDBRANCH   1   8
TORSDOF 1
ENDMDL
MODEL 9
REMARK VINA RESULT:      -4.1     46.190     47.378
REMARK  Name = 
REMARK                            x       y       z     vdW  Elec       q    Type
REMARK                         _______ _______ _______ _____ _____    ______ ____
ROOT
ATOM      1  C   LIG    1      181.264 110.918 145.396  0.00  0.00    +0.160 A 
ATOM      2  N   LIG    1      181.296 112.217 145.053  0.00  0.00    -0.236 NA
ATOM      3  C   LIG    1      182.293 113.035 145.417  0.00  0.00    +0.120 A 
ATOM      4  C   LIG    1      183.356 112.584 146.171  0.00  0.00    +0.120 A 
ATOM      5  N   LIG    1      183.337 111.287 146.521  0.00  0.00    -0.239 NA
ATOM      6  C   LIG    1      182.336 110.463 146.157  0.00  0.00    +0.123 A 
ENDROOT
BRANCH   1   8
ATOM      7  N   LIG    1      179.947 109.664 143.786  0.00  0.00    -0.101 NA
ATOM      8  C   LIG    1      180.173 110.044 144.992  0.00  0.00    +0.316 C 
ATOM      9  O   LIG    1      179.310 109.583 145.970  0.00  0.00    -0.262 OA
ENDBRANCH   1   8
TORSDOF 1
ENDMDL
