REMARK VINA RESULT:      -7.7      0.000      0.000
REMARK  Name = ZINC000049409419
REMARK                            x       y       z     vdW  Elec       q    Type
REMARK                         _______ _______ _______ _____ _____    ______ ____
ROOT
ATOM      1  N   LIG    1      170.549 149.176 147.763  0.00  0.00    -0.282 N 
ATOM      2  H   LIG    1      169.541 149.234 147.983  0.00  0.00    +0.155 HD
ATOM      3  C   LIG    1      171.370 149.987 148.506  0.00  0.00    +0.226 C 
ATOM      4  O   LIG    1      172.576 149.879 148.450  0.00  0.00    -0.275 OA
ENDROOT
BRANCH   1   9
ATOM      5  C   LIG    1      171.454 146.333 144.796  0.00  0.00    +0.142 A 
ATOM      6  C   LIG    1      171.585 145.960 146.146  0.00  0.00    +0.084 A 
ATOM      7 CL   LIG    1      172.110 144.368 146.585  0.00  0.00    -0.080 Cl
ATOM      8  C   LIG    1      171.294 146.880 147.154  0.00  0.00    +0.050 A 
ATOM      9  C   LIG    1      170.869 148.166 146.809  0.00  0.00    +0.077 A 
ATOM     10  C   LIG    1      170.752 148.535 145.459  0.00  0.00    +0.145 A 
ATOM     11  C   LIG    1      171.040 147.620 144.448  0.00  0.00    +0.094 A 
BRANCH   5  13
ATOM     12  C   LIG    1      170.839 144.408 143.277  0.00  0.00    +0.277 C 
ATOM     13  O   LIG    1      171.752 145.389 143.818  0.00  0.00    -0.494 OA
ENDBRANCH   5  13
BRANCH  10  14
ATOM     14  O   LIG    1      170.349 149.841 145.167  0.00  0.00    -0.493 OA
ATOM     15  C   LIG    1      169.039 150.224 144.688  0.00  0.00    +0.277 C 
ENDBRANCH  10  14
ENDBRANCH   1   9
BRANCH   3  16
ATOM     16  C   LIG    1      170.711 150.997 149.409  0.00  0.00    +0.193 C 
BRANCH  16  17
ATOM     17  C   LIG    1      169.728 151.715 148.527  0.00  0.00    +0.226 A 
ATOM     18  O   LIG    1      168.454 151.453 148.594  0.00  0.00    -0.419 OA
ATOM     19  C   LIG    1      167.883 152.229 147.697  0.00  0.00    +0.255 A 
ATOM     20  N   LIG    1      168.780 152.946 147.095  0.00  0.00    -0.107 NA
ATOM     21  N   LIG    1      169.983 152.603 147.643  0.00  0.00    -0.112 NA
BRANCH  19  22
ATOM     22  C   LIG    1      166.441 152.196 147.505  0.00  0.00    +0.079 A 
ATOM     23  C   LIG    1      165.433 152.512 148.400  0.00  0.00    -0.031 A 
ATOM     24  C   LIG    1      165.664 152.979 149.822  0.00  0.00    +0.045 C 
ATOM     25  C   LIG    1      164.150 152.356 147.854  0.00  0.00    +0.012 A 
ATOM     26  C   LIG    1      164.165 151.927 146.558  0.00  0.00    +0.046 A 
ATOM     27  S   LIG    1      165.771 151.704 145.979  0.00  0.00    -0.092 S 
ENDBRANCH  19  22
ENDBRANCH  16  17
ENDBRANCH   3  16
TORSDOF 6
