REMARK VINA RESULT:      -7.1     30.062     34.149
REMARK  Name = ZINC000006087320
REMARK                            x       y       z     vdW  Elec       q    Type
REMARK                         _______ _______ _______ _____ _____    ______ ____
ROOT
ATOM      1  C   LIG    1      154.114 138.182 179.711  0.00  0.00    +0.222 C 
ENDROOT
BRANCH   1   2
ATOM      2  N   LIG    1      155.160 137.870 180.715  0.00  0.00    -0.290 N 
ATOM      3  C   LIG    1      155.200 136.630 181.329  0.00  0.00    +0.262 A 
ATOM      4  O   LIG    1      154.329 135.813 181.017  0.00  0.00    -0.267 OA
ATOM      5  C   LIG    1      156.244 136.382 182.300  0.00  0.00    +0.068 A 
ATOM      6  C   LIG    1      156.375 135.145 182.948  0.00  0.00    +0.035 A 
ATOM      7  C   LIG    1      157.390 134.952 183.878  0.00  0.00    +0.043 A 
ATOM      8 CL   LIG    1      157.548 133.426 184.676  0.00  0.00    -0.083 Cl
ATOM      9  C   LIG    1      158.283 135.985 184.174  0.00  0.00    +0.042 A 
ATOM     10  C   LIG    1      158.157 137.212 183.535  0.00  0.00    +0.068 A 
ATOM     11 CL   LIG    1      159.285 138.473 183.929  0.00  0.00    -0.081 Cl
ATOM     12  C   LIG    1      157.131 137.427 182.588  0.00  0.00    +0.096 A 
ATOM     13  N   LIG    1      156.979 138.665 181.934  0.00  0.00    -0.235 NA
ATOM     14  C   LIG    1      156.057 138.862 181.071  0.00  0.00    +0.203 A 
ENDBRANCH   1   2
BRANCH   1  17
ATOM     15  N   LIG    1      154.713 139.591 177.780  0.00  0.00    -0.284 N 
ATOM     16  H   LIG    1      154.186 140.290 178.333  0.00  0.00    +0.155 HD
ATOM     17  C   LIG    1      154.803 138.352 178.367  0.00  0.00    +0.237 C 
ATOM     18  O   LIG    1      155.417 137.441 177.854  0.00  0.00    -0.274 OA
BRANCH  15  20
ATOM     19  C   LIG    1      156.567 140.362 176.430  0.00  0.00    -0.026 A 
ATOM     20  C   LIG    1      155.201 140.042 176.526  0.00  0.00    +0.037 A 
ATOM     21  C   LIG    1      154.365 140.143 175.409  0.00  0.00    +0.023 A 
ATOM     22  C   LIG    1      154.882 140.588 174.199  0.00  0.00    +0.002 A 
ATOM     23  C   LIG    1      156.229 140.924 174.097  0.00  0.00    +0.000 A 
ATOM     24  C   LIG    1      157.063 140.810 175.206  0.00  0.00    +0.005 A 
BRANCH  19  26
ATOM     25  C   LIG    1      157.614 141.651 178.235  0.00  0.00    +0.009 C 
ATOM     26  C   LIG    1      157.527 140.253 177.609  0.00  0.00    +0.033 C 
ENDBRANCH  19  26
ENDBRANCH  15  20
ENDBRANCH   1  17
TORSDOF 4
