REMARK VINA RESULT:      -9.3      0.000      0.000
REMARK  Name = 
REMARK                            x       y       z     vdW  Elec       q    Type
REMARK                         _______ _______ _______ _____ _____    ______ ____
ROOT
ATOM      1  C   LIG    1      186.974  88.723 153.988  0.00  0.00    +0.243 C 
ATOM      2  C   LIG    1      186.615  90.010 154.869  0.00  0.00    +0.196 C 
ATOM      3  O   LIG    1      187.661  90.503 154.679  0.00  0.00    -0.292 OA
ATOM      4  C   LIG    1      185.732  90.711 155.655  0.00  0.00    +0.090 C 
ATOM      5  C   LIG    1      184.358  90.179 156.080  0.00  0.00    +0.093 C 
ATOM      6  C   LIG    1      183.700  91.508 156.659  0.00  0.00    +0.191 C 
ATOM      7  C   LIG    1      184.085  91.321 158.185  0.00  0.00    +0.157 C 
ATOM      8  C   LIG    1      185.699  91.704 157.934  0.00  0.00    +0.067 C 
ATOM      9  O   LIG    1      183.766  92.764 158.380  0.00  0.00    -0.349 OA
ATOM     10  C   LIG    1      184.352  92.715 157.090  0.00  0.00    +0.185 C 
ATOM     11  C   LIG    1      184.157  89.156 157.213  0.00  0.00    +0.201 C 
ATOM     12  C   LIG    1      184.841  87.763 156.897  0.00  0.00    +0.170 C 
ATOM     13  C   LIG    1      184.757  87.590 155.405  0.00  0.00    +0.048 C 
ATOM     14  C   LIG    1      184.579  86.064 155.026  0.00  0.00    +0.007 C 
ATOM     15  C   LIG    1      183.654  88.221 154.683  0.00  0.00    +0.007 C 
ATOM     16  O   LIG    1      183.973  86.720 157.191  0.00  0.00    -0.222 OA
ATOM     17  C   LIG    1      186.097  87.433 157.559  0.00  0.00    +0.082 C 
ATOM     18  C   LIG    1      186.340  86.129 156.543  0.00  0.00    +0.189 C 
ATOM     19  C   LIG    1      187.082  87.100 155.460  0.00  0.00    -0.009 C 
ATOM     20  C   LIG    1      188.464  87.142 155.210  0.00  0.00    +0.029 C 
ATOM     21  C   LIG    1      185.968  92.081 155.330  0.00  0.00    +0.010 C 
ATOM     22  C   LIG    1      186.241  90.398 157.180  0.00  0.00    +0.161 C 
ATOM     23  O   LIG    1      187.633  90.957 157.066  0.00  0.00    -0.223 OA
ATOM     24  C   LIG    1      186.093  87.796 154.970  0.00  0.00    -0.000 C 
ENDROOT
BRANCH   1  25
ATOM     25  O   LIG    1      185.857  88.903 152.958  0.00  0.00    -0.440 OA
BRANCH  25  27
ATOM     26  C   LIG    1      187.220  88.057 151.042  0.00  0.00    +0.121 C 
ATOM     27  C   LIG    1      186.036  88.027 151.900  0.00  0.00    +0.318 C 
ATOM     28  O   LIG    1      185.199  87.141 151.594  0.00  0.00    -0.250 OA
ENDBRANCH  25  27
ENDBRANCH   1  25
BRANCH   6  29
ATOM     29  O   LIG    1      182.591  91.884 156.132  0.00  0.00    -0.451 OA
BRANCH  29  30
ATOM     30  C   LIG    1      182.020  91.915 154.935  0.00  0.00    +0.317 C 
ATOM     31  O   LIG    1      182.180  92.882 154.164  0.00  0.00    -0.250 OA
ATOM     32  C   LIG    1      181.133  90.860 154.329  0.00  0.00    +0.121 C 
ENDBRANCH  29  30
ENDBRANCH   6  29
BRANCH  11  33
ATOM     33  O   LIG    1      182.810  88.858 157.221  0.00  0.00    -0.446 OA
BRANCH  33  34
ATOM     34  C   LIG    1      181.619  88.595 157.225  0.00  0.00    +0.341 C 
ATOM     35  O   LIG    1      181.195  89.462 158.031  0.00  0.00    -0.245 OA
BRANCH  34  36
ATOM     36  C   LIG    1      180.549  87.760 156.726  0.00  0.00    +0.076 A 
ATOM     37  C   LIG    1      180.796  86.853 155.667  0.00  0.00    +0.006 A 
ATOM     38  C   LIG    1      179.808  86.044 155.175  0.00  0.00    +0.000 A 
ATOM     39  C   LIG    1      178.531  86.067 155.677  0.00  0.00    +0.000 A 
ATOM     40  C   LIG    1      178.241  86.950 156.725  0.00  0.00    +0.000 A 
ATOM     41  C   LIG    1      179.279  87.735 157.173  0.00  0.00    +0.006 A 
ENDBRANCH  34  36
ENDBRANCH  33  34
ENDBRANCH  11  33
BRANCH  18  42
ATOM     42  O   LIG    1      187.608  85.564 157.153  0.00  0.00    -0.446 OA
BRANCH  42  43
ATOM     43  C   LIG    1      187.431  84.287 157.429  0.00  0.00    +0.350 C 
ATOM     44  O   LIG    1      186.347  83.848 157.866  0.00  0.00    -0.247 OA
BRANCH  43  45
ATOM     45  C   LIG    1      188.554  83.141 157.247  0.00  0.00    +0.273 C 
ATOM     46  O   LIG    1      187.820  82.052 157.958  0.00  0.00    -0.209 OA
BRANCH  45  47
ATOM     47  C   LIG    1      189.378  83.683 158.654  0.00  0.00    +0.159 C 
BRANCH  47  48
ATOM     48  C   LIG    1      190.378  84.674 157.991  0.00  0.00    +0.000 A 
ATOM     49  C   LIG    1      190.785  85.662 158.845  0.00  0.00    -0.003 A 
ATOM     50  C   LIG    1      191.670  86.644 158.454  0.00  0.00    -0.000 A 
ATOM     51  C   LIG    1      192.131  86.592 157.165  0.00  0.00    -0.000 A 
ATOM     52  C   LIG    1      191.734  85.612 156.302  0.00  0.00    -0.000 A 
ATOM     53  C   LIG    1      190.841  84.657 156.762  0.00  0.00    -0.003 A 
ENDBRANCH  47  48
BRANCH  47  54
ATOM     54  N   LIG    1      190.247  82.417 158.735  0.00  0.00    -0.196 NA
ATOM     55  C   LIG    1      190.847  81.959 159.845  0.00  0.00    +0.265 C 
ATOM     56  O   LIG    1      190.720  82.575 160.925  0.00  0.00    -0.268 OA
BRANCH  55  57
ATOM     57  C   LIG    1      191.649  80.745 159.805  0.00  0.00    +0.055 A 
ATOM     58  C   LIG    1      191.998  80.147 158.612  0.00  0.00    +0.005 A 
ATOM     59  C   LIG    1      192.755  79.004 158.647  0.00  0.00    +0.000 A 
ATOM     60  C   LIG    1      193.183  78.425 159.827  0.00  0.00    +0.000 A 
ATOM     61  C   LIG    1      192.825  79.037 161.014  0.00  0.00    +0.000 A 
ATOM     62  C   LIG    1      192.069  80.179 160.972  0.00  0.00    +0.005 A 
ENDBRANCH  55  57
ENDBRANCH  47  54
ENDBRANCH  45  47
ENDBRANCH  43  45
ENDBRANCH  42  43
ENDBRANCH  18  42
TORSDOF 14
