REMARK VINA RESULT:      -7.3     36.295     40.827
REMARK  Name = 
REMARK                            x       y       z     vdW  Elec       q    Type
REMARK                         _______ _______ _______ _____ _____    ______ ____
ROOT
ATOM      1  C   LIG    1      182.802 179.182 165.222  0.00  0.00    +0.072 C 
ATOM      2  C   LIG    1      182.214 179.922 166.504  0.00  0.00    +0.070 C 
ATOM      3  N   LIG    1      181.713 178.647 167.229  0.00  0.00    -0.269 NA
ATOM      4  C   LIG    1      180.383 178.456 167.075  0.00  0.00    +0.073 C 
ATOM      5  C   LIG    1      179.992 179.138 165.754  0.00  0.00    +0.024 C 
ATOM      6  C   LIG    1      182.465 177.504 166.921  0.00  0.00    +0.099 C 
ATOM      7  C   LIG    1      181.977 177.084 165.543  0.00  0.00    -0.013 C 
ATOM      8  C   LIG    1      180.715 180.283 165.987  0.00  0.00    +0.055 C 
ATOM      9  C   LIG    1      180.795 181.406 164.879  0.00  0.00    +0.127 C 
ATOM     10  C   LIG    1      181.654 180.684 163.758  0.00  0.00    +0.268 C 
ATOM     11  O   LIG    1      181.042 179.569 163.331  0.00  0.00    -0.209 OA
ATOM     12  N   LIG    1      181.732 182.283 165.631  0.00  0.00    -0.250 N 
ATOM     13  C   LIG    1      182.894 182.851 165.268  0.00  0.00    +0.307 C 
ATOM     14  O   LIG    1      183.614 183.594 165.959  0.00  0.00    -0.265 OA
ATOM     15  C   LIG    1      181.011 182.364 166.878  0.00  0.00    +0.053 A 
ATOM     16  C   LIG    1      180.950 183.448 167.720  0.00  0.00    +0.051 A 
ATOM     17  C   LIG    1      180.162 183.323 168.868  0.00  0.00    +0.137 A 
ATOM     18  C   LIG    1      179.481 182.177 169.149  0.00  0.00    +0.026 A 
ATOM     19  C   LIG    1      179.589 181.125 168.256  0.00  0.00    -0.003 A 
ATOM     20  C   LIG    1      180.349 181.183 167.106  0.00  0.00    -0.006 A 
ATOM     21  C   LIG    1      183.150 180.460 164.249  0.00  0.00    +0.213 C 
ATOM     22  C   LIG    1      182.217 178.087 164.704  0.00  0.00    -0.025 C 
ENDROOT
BRANCH  18  23
ATOM     23  C   LIG    1      178.703 182.108 170.408  0.00  0.00    +0.146 C 
ATOM     24  C   LIG    1      177.860 180.885 170.491  0.00  0.00    +0.068 A 
ATOM     25  C   LIG    1      177.083 180.574 171.564  0.00  0.00    -0.005 A 
ATOM     26  C   LIG    1      176.442 179.354 171.264  0.00  0.00    +0.015 A 
ATOM     27  C   LIG    1      176.856 178.958 170.005  0.00  0.00    +0.081 A 
ATOM     28  C   LIG    1      176.356 177.768 169.482  0.00  0.00    +0.019 A 
ATOM     29  C   LIG    1      175.466 176.975 170.174  0.00  0.00    +0.002 A 
ATOM     30  C   LIG    1      175.053 177.364 171.420  0.00  0.00    +0.000 A 
ATOM     31  C   LIG    1      175.551 178.537 171.929  0.00  0.00    +0.001 A 
ATOM     32  C   LIG    1      176.888 181.296 172.820  0.00  0.00    +0.045 C 
ATOM     33  C   LIG    1      175.543 181.779 173.155  0.00  0.00    +0.077 C 
ATOM     34  N   LIG    1      175.121 183.014 172.580  0.00  0.00    -0.270 NA
ATOM     35  C   LIG    1      175.466 184.207 173.323  0.00  0.00    +0.103 C 
ATOM     36  C   LIG    1      175.724 185.412 172.466  0.00  0.00    +0.141 C 
ATOM     37  C   LIG    1      176.860 185.211 171.451  0.00  0.00    +0.033 C 
ATOM     38  C   LIG    1      177.211 183.661 171.745  0.00  0.00    +0.020 C 
ATOM     39  O   LIG    1      176.168 186.427 173.346  0.00  0.00    -0.224 OA
ATOM     40  C   LIG    1      175.704 183.160 171.288  0.00  0.00    +0.072 C 
ATOM     41  N   LIG    1      177.693 179.887 169.579  0.00  0.00    -0.249 NA
ATOM     42  C   LIG    1      177.824 183.325 170.309  0.00  0.00    +0.022 C 
BRANCH  36  43
ATOM     43  C   LIG    1      174.521 185.902 171.737  0.00  0.00    +0.032 C 
ATOM     44  C   LIG    1      173.966 187.117 172.433  0.00  0.00    +0.003 C 
ENDBRANCH  36  43
BRANCH  23  45
ATOM     45  C   LIG    1      179.633 182.047 171.527  0.00  0.00    +0.325 C 
ATOM     46  O   LIG    1      180.311 180.950 171.625  0.00  0.00    -0.249 OA
BRANCH  45  47
ATOM     47  O   LIG    1      179.926 182.942 172.509  0.00  0.00    -0.444 OA
ATOM     48  C   LIG    1      181.230 183.441 172.742  0.00  0.00    +0.256 C 
ENDBRANCH  45  47
ENDBRANCH  23  45
ENDBRANCH  18  23
BRANCH   1  50
ATOM     49  C   LIG    1      184.814 179.722 166.113  0.00  0.00    +0.001 C 
ATOM     50  C   LIG    1      184.235 178.874 165.725  0.00  0.00    +0.009 C 
ENDBRANCH   1  50
BRANCH  10  51
ATOM     51  C   LIG    1      181.544 181.632 162.636  0.00  0.00    +0.350 C 
ATOM     52  O   LIG    1      181.465 181.354 161.417  0.00  0.00    -0.247 OA
BRANCH  51  53
ATOM     53  O   LIG    1      181.519 183.020 162.864  0.00  0.00    -0.443 OA
ATOM     54  C   LIG    1      182.213 183.940 162.068  0.00  0.00    +0.256 C 
ENDBRANCH  51  53
ENDBRANCH  10  51
BRANCH  17  55
ATOM     55  O   LIG    1      180.125 184.469 169.703  0.00  0.00    -0.472 OA
ATOM     56  C   LIG    1      181.045 185.520 169.562  0.00  0.00    +0.252 C 
ENDBRANCH  17  55
BRANCH  21  57
ATOM     57  O   LIG    1      183.575 179.544 163.116  0.00  0.00    -0.449 OA
BRANCH  57  58
ATOM     58  C   LIG    1      184.474 180.099 162.259  0.00  0.00    +0.318 C 
ATOM     59  O   LIG    1      184.699 179.887 161.062  0.00  0.00    -0.250 OA
ATOM     60  C   LIG    1      185.378 181.170 162.847  0.00  0.00    +0.121 C 
ENDBRANCH  57  58
ENDBRANCH  21  57
TORSDOF 10
