REMARK VINA RESULT:      -6.3     16.953     19.396
REMARK  Name = ZINC000049483930
REMARK                            x       y       z     vdW  Elec       q    Type
REMARK                         _______ _______ _______ _____ _____    ______ ____
ROOT
ATOM      1  O   LIG    1      181.386  85.764 154.655  0.00  0.00    -0.275 OA
ATOM      2  C   LIG    1      181.224  86.845 155.185  0.00  0.00    +0.226 C 
ATOM      3  N   LIG    1      180.060  87.511 154.948  0.00  0.00    -0.299 N 
ATOM      4  C   LIG    1      179.504  88.757 155.475  0.00  0.00    +0.122 C 
ATOM      5  C   LIG    1      178.256  88.448 154.590  0.00  0.00    +0.112 C 
ATOM      6  C   LIG    1      178.894  87.089 154.172  0.00  0.00    +0.122 C 
ENDROOT
BRANCH   5   7
ATOM      7  C   LIG    1      178.142  89.395 153.415  0.00  0.00    +0.234 A 
ATOM      8  O   LIG    1      176.966  89.696 152.898  0.00  0.00    -0.337 OA
ATOM      9  N   LIG    1      177.161  90.534 151.903  0.00  0.00    -0.056 NA
ATOM     10  C   LIG    1      178.437  90.712 151.853  0.00  0.00    +0.209 A 
ATOM     11  N   LIG    1      179.081  89.993 152.807  0.00  0.00    -0.191 NA
BRANCH  10  12
ATOM     12  C   LIG    1      179.104  91.583 150.892  0.00  0.00    +0.060 A 
ATOM     13  S   LIG    1      179.235  93.298 151.147  0.00  0.00    -0.093 S 
ATOM     14  C   LIG    1      180.085  93.501 149.659  0.00  0.00    +0.046 A 
ATOM     15  C   LIG    1      180.256  92.314 149.008  0.00  0.00    +0.008 A 
ATOM     16  C   LIG    1      179.702  91.229 149.704  0.00  0.00    +0.019 A 
ENDBRANCH  10  12
ENDBRANCH   5   7
BRANCH   2  17
ATOM     17  C   LIG    1      182.255  87.452 156.113  0.00  0.00    +0.174 C 
BRANCH  17  18
ATOM     18  S   LIG    1      183.851  86.702 155.618  0.00  0.00    -0.058 S 
BRANCH  18  19
ATOM     19  C   LIG    1      184.141  85.638 156.954  0.00  0.00    +0.258 A 
ATOM     20  O   LIG    1      185.359  85.029 157.028  0.00  0.00    -0.431 OA
ATOM     21  C   LIG    1      185.286  84.288 158.143  0.00  0.00    +0.156 A 
ATOM     22  C   LIG    1      186.248  83.459 158.710  0.00  0.00    +0.048 A 
ATOM     23  C   LIG    1      185.917  82.794 159.887  0.00  0.00    +0.004 A 
ATOM     24  C   LIG    1      184.645  82.969 160.465  0.00  0.00    +0.002 A 
ATOM     25  C   LIG    1      183.704  83.808 159.872  0.00  0.00    +0.031 A 
ATOM     26  C   LIG    1      184.037  84.477 158.690  0.00  0.00    +0.110 A 
ATOM     27  N   LIG    1      183.317  85.344 157.911  0.00  0.00    -0.203 NA
ENDBRANCH  18  19
ENDBRANCH  17  18
ENDBRANCH   2  17
TORSDOF 5
