REMARK VINA RESULT:      -8.9      1.845      2.504
REMARK  Name = 
REMARK                            x       y       z     vdW  Elec       q    Type
REMARK                         _______ _______ _______ _____ _____    ______ ____
ROOT
ATOM      1  C   LIG    1      186.317  89.737 153.984  0.00  0.00    +0.243 C 
ATOM      2  C   LIG    1      185.059  90.506 154.608  0.00  0.00    +0.196 C 
ATOM      3  O   LIG    1      185.695  91.453 154.873  0.00  0.00    -0.292 OA
ATOM      4  C   LIG    1      183.724  90.544 154.932  0.00  0.00    +0.090 C 
ATOM      5  C   LIG    1      182.764  89.363 154.742  0.00  0.00    +0.093 C 
ATOM      6  C   LIG    1      181.365  90.090 154.964  0.00  0.00    +0.191 C 
ATOM      7  C   LIG    1      181.187  89.798 156.512  0.00  0.00    +0.157 C 
ATOM      8  C   LIG    1      182.344  90.926 156.965  0.00  0.00    +0.067 C 
ATOM      9  O   LIG    1      180.139  90.858 156.529  0.00  0.00    -0.349 OA
ATOM     10  C   LIG    1      181.102  91.347 155.612  0.00  0.00    +0.185 C 
ATOM     11  C   LIG    1      182.699  88.159 155.698  0.00  0.00    +0.201 C 
ATOM     12  C   LIG    1      184.052  87.336 155.725  0.00  0.00    +0.170 C 
ATOM     13  C   LIG    1      184.632  87.449 154.342  0.00  0.00    +0.048 C 
ATOM     14  C   LIG    1      185.405  86.125 153.948  0.00  0.00    +0.007 C 
ATOM     15  C   LIG    1      183.726  87.630 153.209  0.00  0.00    +0.007 C 
ATOM     16  O   LIG    1      183.791  85.975 155.639  0.00  0.00    -0.222 OA
ATOM     17  C   LIG    1      184.947  87.497 156.863  0.00  0.00    +0.082 C 
ATOM     18  C   LIG    1      186.174  86.689 156.069  0.00  0.00    +0.189 C 
ATOM     19  C   LIG    1      186.668  88.089 155.388  0.00  0.00    -0.009 C 
ATOM     20  C   LIG    1      187.816  88.814 155.749  0.00  0.00    +0.029 C 
ATOM     21  C   LIG    1      183.339  91.901 154.717  0.00  0.00    +0.010 C 
ATOM     22  C   LIG    1      183.707  90.201 156.534  0.00  0.00    +0.161 C 
ATOM     23  O   LIG    1      184.551  91.350 157.014  0.00  0.00    -0.223 OA
ATOM     24  C   LIG    1      185.731  88.332 154.513  0.00  0.00    -0.000 C 
ENDROOT
BRANCH   1  25
ATOM     25  O   LIG    1      185.743  89.584 152.574  0.00  0.00    -0.440 OA
BRANCH  25  27
ATOM     26  C   LIG    1      188.110  89.256 151.843  0.00  0.00    +0.121 C 
ATOM     27  C   LIG    1      186.675  88.990 151.740  0.00  0.00    +0.318 C 
ATOM     28  O   LIG    1      186.365  88.179 150.831  0.00  0.00    -0.250 OA
ENDBRANCH  25  27
ENDBRANCH   1  25
BRANCH   6  29
ATOM     29  O   LIG    1      180.510  90.008 154.010  0.00  0.00    -0.451 OA
BRANCH  29  30
ATOM     30  C   LIG    1      180.496  90.036 152.684  0.00  0.00    +0.317 C 
ATOM     31  O   LIG    1      180.481  91.115 152.056  0.00  0.00    -0.250 OA
ATOM     32  C   LIG    1      180.495  88.851 151.754  0.00  0.00    +0.121 C 
ENDBRANCH  29  30
ENDBRANCH   6  29
BRANCH  11  33
ATOM     33  O   LIG    1      181.798  87.277 155.137  0.00  0.00    -0.446 OA
BRANCH  33  34
ATOM     34  C   LIG    1      181.002  86.499 154.639  0.00  0.00    +0.341 C 
ATOM     35  O   LIG    1      179.958  86.802 155.270  0.00  0.00    -0.245 OA
BRANCH  34  36
ATOM     36  C   LIG    1      180.762  85.439 153.685  0.00  0.00    +0.076 A 
ATOM     37  C   LIG    1      181.770  84.479 153.425  0.00  0.00    +0.006 A 
ATOM     38  C   LIG    1      181.574  83.461 152.534  0.00  0.00    +0.000 A 
ATOM     39  C   LIG    1      180.395  83.313 151.845  0.00  0.00    +0.000 A 
ATOM     40  C   LIG    1      179.370  84.239 152.070  0.00  0.00    +0.000 A 
ATOM     41  C   LIG    1      179.632  85.239 152.979  0.00  0.00    +0.006 A 
ENDBRANCH  34  36
ENDBRANCH  33  34
ENDBRANCH  11  33
BRANCH  18  42
ATOM     42  O   LIG    1      187.217  86.664 157.169  0.00  0.00    -0.446 OA
BRANCH  42  43
ATOM     43  C   LIG    1      187.122  85.534 157.839  0.00  0.00    +0.350 C 
ATOM     44  O   LIG    1      186.263  85.362 158.731  0.00  0.00    -0.247 OA
BRANCH  43  45
ATOM     45  C   LIG    1      188.068  84.245 157.613  0.00  0.00    +0.273 C 
ATOM     46  O   LIG    1      187.496  83.404 158.706  0.00  0.00    -0.209 OA
BRANCH  45  47
ATOM     47  C   LIG    1      189.292  84.932 158.604  0.00  0.00    +0.159 C 
BRANCH  47  48
ATOM     48  C   LIG    1      190.254  85.445 157.493  0.00  0.00    +0.000 A 
ATOM     49  C   LIG    1      190.674  86.728 157.713  0.00  0.00    -0.003 A 
ATOM     50  C   LIG    1      191.530  87.373 156.844  0.00  0.00    -0.000 A 
ATOM     51  C   LIG    1      191.949  86.671 155.744  0.00  0.00    -0.000 A 
ATOM     52  C   LIG    1      191.537  85.390 155.513  0.00  0.00    -0.000 A 
ATOM     53  C   LIG    1      190.675  84.805 156.427  0.00  0.00    -0.003 A 
ENDBRANCH  47  48
BRANCH  47  54
ATOM     54  N   LIG    1      189.925  83.566 158.916  0.00  0.00    -0.196 NA
ATOM     55  C   LIG    1      190.749  83.310 159.943  0.00  0.00    +0.265 C 
ATOM     56  O   LIG    1      191.059  84.223 160.739  0.00  0.00    -0.268 OA
BRANCH  55  57
ATOM     57  C   LIG    1      191.291  81.974 160.143  0.00  0.00    +0.055 A 
ATOM     58  C   LIG    1      191.475  81.102 159.089  0.00  0.00    +0.005 A 
ATOM     59  C   LIG    1      191.989  79.858 159.348  0.00  0.00    +0.000 A 
ATOM     60  C   LIG    1      192.328  79.438 160.621  0.00  0.00    +0.000 A 
ATOM     61  C   LIG    1      192.138  80.323 161.666  0.00  0.00    +0.000 A 
ATOM     62  C   LIG    1      191.625  81.566 161.400  0.00  0.00    +0.005 A 
ENDBRANCH  55  57
ENDBRANCH  47  54
ENDBRANCH  45  47
ENDBRANCH  43  45
ENDBRANCH  42  43
ENDBRANCH  18  42
TORSDOF 14
