REMARK VINA RESULT:      -6.7     14.794     16.723
REMARK  Name = ZINC000009075134
REMARK                            x       y       z     vdW  Elec       q    Type
REMARK                         _______ _______ _______ _____ _____    ______ ____
ROOT
ATOM      1  C   LIG    1      163.276 161.022 157.265  0.00  0.00    +0.061 A 
ATOM      2  C   LIG    1      162.176 161.894 157.350  0.00  0.00    +0.039 A 
ATOM      3  C   LIG    1      161.020 161.501 158.009  0.00  0.00    +0.048 A 
ATOM      4  N   LIG    1      159.916 162.393 158.023  0.00  0.00    -0.284 N 
ATOM      5  H   LIG    1      159.851 163.143 157.322  0.00  0.00    +0.155 HD
ATOM      6  C   LIG    1      158.841 162.294 158.845  0.00  0.00    +0.227 C 
ATOM      7  C   LIG    1      158.837 161.341 160.026  0.00  0.00    +0.170 C 
ATOM      8  S   LIG    1      159.479 159.724 159.451  0.00  0.00    -0.114 S 
ATOM      9  O   LIG    1      157.915 163.036 158.600  0.00  0.00    -0.275 OA
ATOM     10  C   LIG    1      160.921 160.230 158.610  0.00  0.00    +0.030 A 
ATOM     11  C   LIG    1      162.008 159.357 158.513  0.00  0.00    +0.017 A 
ATOM     12  C   LIG    1      163.168 159.748 157.855  0.00  0.00    +0.016 A 
ENDROOT
BRANCH   1  14
ATOM     13  O   LIG    1      165.555 161.664 157.145  0.00  0.00    -0.245 OA
ATOM     14  C   LIG    1      164.494 161.440 156.578  0.00  0.00    +0.340 C 
BRANCH  14  15
ATOM     15  O   LIG    1      164.448 161.602 155.234  0.00  0.00    -0.456 OA
BRANCH  15  16
ATOM     16  C   LIG    1      163.727 160.694 154.359  0.00  0.00    +0.268 C 
BRANCH  16  17
ATOM     17  C   LIG    1      163.079 161.587 153.318  0.00  0.00    -0.010 A 
ATOM     18  C   LIG    1      162.730 161.072 152.069  0.00  0.00    +0.008 A 
ATOM     19  C   LIG    1      162.134 161.891 151.114  0.00  0.00    +0.015 A 
ATOM     20  C   LIG    1      161.879 163.229 151.401  0.00  0.00    +0.018 A 
ATOM     21 BR   LIG    1      161.069 164.341 150.102  0.00  0.00    -0.050 Br
ATOM     22  C   LIG    1      162.220 163.745 152.649  0.00  0.00    +0.015 A 
ATOM     23  C   LIG    1      162.815 162.926 153.604  0.00  0.00    +0.008 A 
ENDBRANCH  16  17
ENDBRANCH  15  16
ENDBRANCH  14  15
ENDBRANCH   1  14
TORSDOF 4
