REMARK VINA RESULT:      -7.2      4.365      6.669
REMARK  Name = ZINC000000622958
REMARK                            x       y       z     vdW  Elec       q    Type
REMARK                         _______ _______ _______ _____ _____    ______ ____
ROOT
ATOM      1  C   LIG    1      169.592 150.465 148.774  0.00  0.00    +0.271 C 
ATOM      2  N   LIG    1      168.265 150.122 149.218  0.00  0.00    -0.157 N 
ATOM      3  C   LIG    1      167.439 151.144 149.172  0.00  0.00    +0.250 C 
ATOM      4  C   LIG    1      165.973 151.107 149.580  0.00  0.00    +0.124 C 
ATOM      5  C   LIG    1      165.127 151.218 148.290  0.00  0.00    +0.012 C 
ATOM      6  C   LIG    1      165.077 152.686 147.825  0.00  0.00    +0.004 C 
ATOM      7  C   LIG    1      166.402 153.280 147.301  0.00  0.00    +0.045 C 
ATOM      8  C   LIG    1      167.386 153.497 148.467  0.00  0.00    +0.236 C 
ATOM      9  N   LIG    1      168.045 152.202 148.697  0.00  0.00    -0.258 N 
ATOM     10  C   LIG    1      169.441 151.929 148.288  0.00  0.00    +0.323 C 
ENDROOT
BRANCH   1  11
ATOM     11  C   LIG    1      170.065 149.535 147.651  0.00  0.00    +0.034 A 
ATOM     12  C   LIG    1      171.010 148.532 147.935  0.00  0.00    +0.060 A 
ATOM     13  C   LIG    1      171.434 147.703 146.910  0.00  0.00    +0.167 A 
ATOM     14  O   LIG    1      172.332 146.700 146.998  0.00  0.00    -0.453 OA
ATOM     15  C   LIG    1      172.438 146.126 145.632  0.00  0.00    +0.466 C 
ATOM     16  O   LIG    1      171.502 146.923 144.804  0.00  0.00    -0.453 OA
ATOM     17  C   LIG    1      170.951 147.835 145.634  0.00  0.00    +0.166 A 
ATOM     18  C   LIG    1      170.017 148.809 145.317  0.00  0.00    +0.050 A 
ATOM     19  C   LIG    1      169.576 149.660 146.333  0.00  0.00    +0.014 A 
ENDBRANCH   1  11
BRANCH   2  20
ATOM     20  C   LIG    1      167.899 148.802 149.593  0.00  0.00    +0.124 A 
ATOM     21  C   LIG    1      167.645 147.851 148.605  0.00  0.00    +0.050 A 
ATOM     22  C   LIG    1      167.300 146.556 148.985  0.00  0.00    +0.024 A 
ATOM     23  C   LIG    1      167.214 146.225 150.340  0.00  0.00    +0.041 A 
ATOM     24 CL   LIG    1      166.787 144.615 150.807  0.00  0.00    -0.084 Cl
ATOM     25  C   LIG    1      167.472 147.188 151.322  0.00  0.00    +0.024 A 
ATOM     26  C   LIG    1      167.816 148.484 150.949  0.00  0.00    +0.050 A 
ENDBRANCH   2  20
BRANCH   1  27
ATOM     27  O   LIG    1      170.419 150.411 149.929  0.00  0.00    -0.347 OA
ATOM     28  H   LIG    1      170.438 149.493 150.238  0.00  0.00    +0.215 HD
ENDBRANCH   1  27
TORSDOF 3
