REMARK VINA RESULT:      -7.9      5.826      8.708
REMARK  Name = ZINC000006083766
REMARK                            x       y       z     vdW  Elec       q    Type
REMARK                         _______ _______ _______ _____ _____    ______ ____
ROOT
ATOM      1  O   LIG    1      166.439 144.944 146.559  0.00  0.00    -0.468 OA
ENDROOT
BRANCH   1   2
ATOM      2  C   LIG    1      167.443 145.493 145.829  0.00  0.00    +0.227 A 
ATOM      3  C   LIG    1      168.763 145.044 146.008  0.00  0.00    +0.073 A 
ATOM      4  C   LIG    1      169.331 144.054 146.861  0.00  0.00    -0.023 A 
ATOM      5  C   LIG    1      168.540 143.206 147.847  0.00  0.00    +0.037 C 
ATOM      6  C   LIG    1      169.435 142.044 148.317  0.00  0.00    +0.005 C 
ATOM      7  C   LIG    1      170.842 142.528 148.706  0.00  0.00    +0.005 C 
ATOM      8  C   LIG    1      171.611 143.033 147.473  0.00  0.00    +0.043 C 
ATOM      9  C   LIG    1      170.686 143.971 146.726  0.00  0.00    -0.004 A 
ATOM     10  S   LIG    1      171.309 145.073 145.538  0.00  0.00    -0.073 S 
ATOM     11  C   LIG    1      169.718 145.675 145.228  0.00  0.00    +0.116 A 
ATOM     12  N   LIG    1      169.410 146.652 144.341  0.00  0.00    -0.228 NA
ATOM     13  C   LIG    1      168.149 146.998 144.243  0.00  0.00    +0.226 A 
ATOM     14  N   LIG    1      167.143 146.443 144.970  0.00  0.00    -0.201 NA
ENDBRANCH   1   2
BRANCH   1  15
ATOM     15  C   LIG    1      165.534 143.937 146.019  0.00  0.00    +0.310 C 
BRANCH  15  17
ATOM     16  O   LIG    1      163.370 143.182 146.630  0.00  0.00    -0.288 OA
ATOM     17  C   LIG    1      164.394 143.719 147.009  0.00  0.00    +0.200 C 
BRANCH  17  18
ATOM     18  C   LIG    1      164.551 144.105 148.412  0.00  0.00    +0.025 A 
ATOM     19  C   LIG    1      165.238 143.287 149.330  0.00  0.00    +0.061 A 
ATOM     20  C   LIG    1      165.366 143.687 150.652  0.00  0.00    +0.163 A 
ATOM     21  O   LIG    1      166.064 142.891 151.535  0.00  0.00    -0.485 OA
ATOM     22  C   LIG    1      166.496 143.483 152.798  0.00  0.00    +0.270 C 
ATOM     23  C   LIG    1      165.285 144.229 153.382  0.00  0.00    +0.270 C 
ATOM     24  O   LIG    1      164.908 145.253 152.412  0.00  0.00    -0.485 OA
ATOM     25  C   LIG    1      164.803 144.889 151.092  0.00  0.00    +0.162 A 
ATOM     26  C   LIG    1      164.129 145.714 150.200  0.00  0.00    +0.050 A 
ATOM     27  C   LIG    1      164.004 145.322 148.870  0.00  0.00    +0.015 A 
ENDBRANCH  17  18
ENDBRANCH  15  17
ENDBRANCH   1  15
TORSDOF 4
