REMARK VINA RESULT:      -6.6      0.000      0.000
REMARK  Name = 
REMARK                            x       y       z     vdW  Elec       q    Type
REMARK                         _______ _______ _______ _____ _____    ______ ____
ROOT
ATOM      1  C   LIG    1      166.537 149.839 150.606  0.00  0.00    -0.010 A 
ATOM      2  C   LIG    1      166.007 151.075 150.249  0.00  0.00    -0.007 A 
ATOM      3  C   LIG    1      166.752 152.010 149.591  0.00  0.00    -0.010 A 
ATOM      4  C   LIG    1      168.032 151.710 149.285  0.00  0.00    -0.006 A 
ATOM      5  C   LIG    1      168.649 150.478 149.606  0.00  0.00    +0.002 A 
ATOM      6  C   LIG    1      167.846 149.587 150.265  0.00  0.00    -0.006 A 
ENDROOT
BRANCH   1   8
ATOM      7  C   LIG    1      164.625 149.549 152.192  0.00  0.00    +0.020 C 
ATOM      8  C   LIG    1      165.656 148.883 151.310  0.00  0.00    +0.098 C 
ATOM      9  C   LIG    1      166.440 147.822 152.079  0.00  0.00    +0.020 C 
BRANCH   8  10
ATOM     10  C   LIG    1      164.898 148.084 150.302  0.00  0.00    +0.075 C 
ATOM     11  N   LIG    1      164.312 147.460 149.494  0.00  0.00    -0.196 NA
ENDBRANCH   8  10
ENDBRANCH   1   8
BRANCH   3  12
ATOM     12  C   LIG    1      166.199 153.358 149.224  0.00  0.00    +0.098 C 
ATOM     13  C   LIG    1      164.882 153.571 149.882  0.00  0.00    +0.020 C 
ATOM     14  C   LIG    1      166.158 153.421 147.706  0.00  0.00    +0.020 C 
BRANCH  12  15
ATOM     15  C   LIG    1      167.113 154.392 149.701  0.00  0.00    +0.075 C 
ATOM     16  N   LIG    1      167.851 155.229 150.086  0.00  0.00    -0.196 NA
ENDBRANCH  12  15
ENDBRANCH   3  12
BRANCH   5  17
ATOM     17  C   LIG    1      170.011 150.371 149.166  0.00  0.00    +0.156 C 
BRANCH  17  18
ATOM     18  N   LIG    1      170.348 150.581 147.811  0.00  0.00    -0.226 N 
ATOM     19  N   LIG    1      171.073 151.584 147.338  0.00  0.00    -0.145 NA
ATOM     20  C   LIG    1      171.151 151.492 146.004  0.00  0.00    +0.221 A 
ATOM     21  N   LIG    1      170.456 150.397 145.611  0.00  0.00    -0.201 NA
ATOM     22  C   LIG    1      169.967 149.847 146.738  0.00  0.00    +0.198 A 
ENDBRANCH  17  18
ENDBRANCH   5  17
TORSDOF 6
