REMARK VINA RESULT:      -4.1     46.190     47.378
REMARK  Name = 
REMARK                            x       y       z     vdW  Elec       q    Type
REMARK                         _______ _______ _______ _____ _____    ______ ____
ROOT
ATOM      1  C   LIG    1      181.264 110.918 145.396  0.00  0.00    +0.160 A 
ATOM      2  N   LIG    1      181.296 112.217 145.053  0.00  0.00    -0.236 NA
ATOM      3  C   LIG    1      182.293 113.035 145.417  0.00  0.00    +0.120 A 
ATOM      4  C   LIG    1      183.356 112.584 146.171  0.00  0.00    +0.120 A 
ATOM      5  N   LIG    1      183.337 111.287 146.521  0.00  0.00    -0.239 NA
ATOM      6  C   LIG    1      182.336 110.463 146.157  0.00  0.00    +0.123 A 
ENDROOT
BRANCH   1   8
ATOM      7  N   LIG    1      179.947 109.664 143.786  0.00  0.00    -0.101 NA
ATOM      8  C   LIG    1      180.173 110.044 144.992  0.00  0.00    +0.316 C 
ATOM      9  O   LIG    1      179.310 109.583 145.970  0.00  0.00    -0.262 OA
ENDBRANCH   1   8
TORSDOF 1
