REMARK VINA RESULT:      -6.8     39.187     43.913
REMARK  Name = 
REMARK                            x       y       z     vdW  Elec       q    Type
REMARK                         _______ _______ _______ _____ _____    ______ ____
ROOT
ATOM      1  C   LIG    1      199.578 116.281 144.476  0.00  0.00    +0.155 A 
ATOM      2  C   LIG    1      198.718 117.177 145.091  0.00  0.00    +0.054 A 
ATOM      3  C   LIG    1      198.894 117.559 146.404  0.00  0.00    +0.089 A 
ATOM      4  C   LIG    1      198.032 118.463 147.034  0.00  0.00    +0.059 A 
ATOM      5  C   LIG    1      196.972 118.991 146.330  0.00  0.00    +0.174 A 
ATOM      6  C   LIG    1      196.816 118.594 145.020  0.00  0.00    +0.173 A 
ATOM      7  N   LIG    1      199.929 117.043 147.091  0.00  0.00    -0.224 NA
ATOM      8  C   LIG    1      200.767 116.174 146.500  0.00  0.00    +0.200 A 
ATOM      9  C   LIG    1      197.652 117.713 144.396  0.00  0.00    +0.044 A 
ATOM     10  N   LIG    1      200.585 115.809 145.219  0.00  0.00    -0.207 NA
ENDROOT
BRANCH   1  11
ATOM     11  N   LIG    1      199.328 115.942 143.130  0.00  0.00    -0.194 NA
BRANCH  11  14
ATOM     12  C   LIG    1      197.099 113.460 141.483  0.00  0.00    +0.044 A 
ATOM     13  C   LIG    1      197.697 114.637 141.881  0.00  0.00    +0.025 A 
ATOM     14  C   LIG    1      198.756 114.687 142.762  0.00  0.00    +0.073 A 
ATOM     15  C   LIG    1      199.262 113.516 143.286  0.00  0.00    +0.017 A 
ATOM     16  C   LIG    1      198.682 112.324 142.905  0.00  0.00    +0.002 A 
ATOM     17  C   LIG    1      197.626 112.296 142.026  0.00  0.00    +0.008 A 
BRANCH  12  19
ATOM     18  C   LIG    1      195.062 113.414 139.773  0.00  0.00    -0.009 C 
ATOM     19  C   LIG    1      195.987 113.427 140.559  0.00  0.00    -0.051 C 
ENDBRANCH  12  19
ENDBRANCH  11  14
ENDBRANCH   1  11
BRANCH   6  20
ATOM     20  O   LIG    1      195.739 119.141 144.327  0.00  0.00    -0.470 OA
BRANCH  20  21
ATOM     21  C   LIG    1      194.808 118.392 143.599  0.00  0.00    +0.237 C 
BRANCH  21  22
ATOM     22  C   LIG    1      194.626 118.951 142.204  0.00  0.00    +0.189 C 
BRANCH  22  23
ATOM     23  O   LIG    1      193.256 119.187 141.974  0.00  0.00    -0.347 OA
ATOM     24  C   LIG    1      193.054 120.284 141.153  0.00  0.00    +0.174 C 
ENDBRANCH  22  23
ENDBRANCH  21  22
ENDBRANCH  20  21
ENDBRANCH   6  20
BRANCH   5  25
ATOM     25  O   LIG    1      196.078 119.904 146.923  0.00  0.00    -0.470 OA
BRANCH  25  26
ATOM     26  C   LIG    1      195.347 119.534 148.076  0.00  0.00    +0.237 C 
BRANCH  26  27
ATOM     27  C   LIG    1      193.878 119.525 147.684  0.00  0.00    +0.189 C 
BRANCH  27  28
ATOM     28  O   LIG    1      193.597 120.446 146.698  0.00  0.00    -0.347 OA
ATOM     29  C   LIG    1      192.473 120.065 145.972  0.00  0.00    +0.174 C 
ENDBRANCH  27  28
ENDBRANCH  26  27
ENDBRANCH  25  26
ENDBRANCH   5  25
TORSDOF 11
