REMARK VINA RESULT:      -5.7     22.992     24.768
REMARK  Name = ZINC000000622877
REMARK                            x       y       z     vdW  Elec       q    Type
REMARK                         _______ _______ _______ _____ _____    ______ ____
ROOT
ATOM      1  O   LIG    1      186.270 129.237 130.523  0.00  0.00    -0.274 OA
ATOM      2  C   LIG    1      186.659 129.499 131.650  0.00  0.00    +0.235 C 
ATOM      3  N   LIG    1      185.864 129.237 132.724  0.00  0.00    -0.219 N 
ATOM      4  H   LIG    1      186.243 129.279 133.685  0.00  0.00    +0.176 HD
ENDROOT
BRANCH   3   5
ATOM      5  N   LIG    1      184.530 128.627 132.570  0.00  0.00    -0.217 N 
ATOM      6  C   LIG    1      184.314 127.242 132.665  0.00  0.00    +0.079 A 
ATOM      7  C   LIG    1      182.984 126.971 132.668  0.00  0.00    +0.078 A 
ATOM      8  S   LIG    1      181.996 128.388 132.514  0.00  0.00    -0.033 S 
ATOM      9  C   LIG    1      183.401 129.405 132.453  0.00  0.00    +0.308 A 
ATOM     10  O   LIG    1      183.424 130.647 132.307  0.00  0.00    -0.258 OA
BRANCH   6  11
ATOM     11  C   LIG    1      185.415 126.293 132.741  0.00  0.00    +0.001 A 
ATOM     12  C   LIG    1      186.049 125.828 131.580  0.00  0.00    +0.010 A 
ATOM     13  C   LIG    1      187.094 124.915 131.658  0.00  0.00    +0.001 A 
ATOM     14  C   LIG    1      187.525 124.451 132.897  0.00  0.00    +0.000 A 
ATOM     15  C   LIG    1      186.907 124.905 134.058  0.00  0.00    +0.001 A 
ATOM     16  C   LIG    1      185.862 125.818 133.980  0.00  0.00    +0.010 A 
ENDBRANCH   6  11
ENDBRANCH   3   5
BRANCH   2  17
ATOM     17  C   LIG    1      188.023 130.110 131.907  0.00  0.00    +0.132 C 
BRANCH  17  18
ATOM     18  C   LIG    1      189.072 129.212 131.266  0.00  0.00    -0.039 A 
ATOM     19  C   LIG    1      189.306 127.931 131.765  0.00  0.00    +0.005 A 
ATOM     20  C   LIG    1      190.253 127.106 131.165  0.00  0.00    +0.015 A 
ATOM     21  C   LIG    1      190.975 127.555 130.062  0.00  0.00    +0.018 A 
ATOM     22 BR   LIG    1      192.259 126.431 129.247  0.00  0.00    -0.050 Br
ATOM     23  C   LIG    1      190.746 128.834 129.563  0.00  0.00    +0.015 A 
ATOM     24  C   LIG    1      189.801 129.660 130.163  0.00  0.00    +0.005 A 
ENDBRANCH  17  18
ENDBRANCH   2  17
TORSDOF 4
