REMARK VINA RESULT:     -11.1     52.078     55.394
REMARK  Name = 
REMARK                            x       y       z     vdW  Elec       q    Type
REMARK                         _______ _______ _______ _____ _____    ______ ____
ROOT
ATOM      1  C   LIG    1      168.569 114.606 128.316  0.00  0.00    +0.046 C 
ATOM      2  C   LIG    1      168.407 115.384 128.554  0.00  0.00    +0.024 C 
ATOM      3  C   LIG    1      169.721 115.734 128.417  0.00  0.00    +0.072 C 
ATOM      4  N   LIG    1      169.948 114.953 128.166  0.00  0.00    -0.274 NA
ATOM      5  C   LIG    1      170.719 114.738 127.972  0.00  0.00    +0.098 C 
ATOM      6  C   LIG    1      170.877 113.963 127.736  0.00  0.00    -0.013 C 
ATOM      7  C   LIG    1      170.268 113.408 127.694  0.00  0.00    -0.025 C 
ATOM      8  C   LIG    1      169.504 113.625 127.887  0.00  0.00    +0.067 C 
ATOM      9  C   LIG    1      168.889 113.061 127.843  0.00  0.00    +0.212 C 
ATOM     10  C   LIG    1      168.121 113.277 128.037  0.00  0.00    +0.263 C 
ATOM     11  O   LIG    1      168.285 112.509 127.801  0.00  0.00    -0.209 OA
ATOM     12  C   LIG    1      169.336 114.394 128.123  0.00  0.00    +0.087 C 
ATOM     13  C   LIG    1      167.953 114.046 128.273  0.00  0.00    +0.145 C 
ATOM     14  N   LIG    1      167.182 114.261 128.467  0.00  0.00    -0.255 N 
ATOM     15  C   LIG    1      166.574 113.706 128.425  0.00  0.00    +0.307 C 
ATOM     16  O   LIG    1      165.799 113.929 128.621  0.00  0.00    -0.265 OA
ATOM     17  C   LIG    1      167.025 115.036 128.704  0.00  0.00    +0.053 A 
ATOM     18  C   LIG    1      166.257 115.215 128.887  0.00  0.00    +0.051 A 
ATOM     19  C   LIG    1      166.072 115.986 129.128  0.00  0.00    +0.137 A 
ATOM     20  C   LIG    1      166.659 116.555 129.177  0.00  0.00    +0.026 A 
ATOM     21  C   LIG    1      167.437 116.367 128.990  0.00  0.00    -0.003 A 
ATOM     22  C   LIG    1      167.632 115.594 128.747  0.00  0.00    -0.007 A 
ENDROOT
BRANCH  20  23
ATOM     23  C   LIG    1      166.189 118.477 129.778  0.00  0.00    +0.146 C 
ATOM     24  C   LIG    1      166.164 118.702 128.980  0.00  0.00    +0.022 C 
ATOM     25  C   LIG    1      166.329 118.072 128.475  0.00  0.00    +0.020 C 
ATOM     26  C   LIG    1      166.358 118.076 127.646  0.00  0.00    +0.033 C 
ATOM     27  C   LIG    1      166.231 118.697 127.127  0.00  0.00    +0.141 C 
ATOM     28  O   LIG    1      166.194 119.005 126.130  0.00  0.00    -0.224 OA
ATOM     29  C   LIG    1      166.042 119.480 127.301  0.00  0.00    +0.103 C 
ATOM     30  N   LIG    1      165.933 119.831 128.043  0.00  0.00    -0.270 NA
ATOM     31  C   LIG    1      165.987 119.489 128.786  0.00  0.00    +0.077 C 
ATOM     32  C   LIG    1      165.836 120.044 129.381  0.00  0.00    +0.045 C 
ATOM     33  C   LIG    1      165.862 119.814 130.172  0.00  0.00    -0.005 A 
ATOM     34  C   LIG    1      165.736 120.145 131.552  0.00  0.00    +0.015 A 
ATOM     35  C   LIG    1      165.911 119.365 131.753  0.00  0.00    +0.081 A 
ATOM     36  C   LIG    1      165.938 119.129 132.542  0.00  0.00    +0.019 A 
ATOM     37  C   LIG    1      165.787 119.685 133.137  0.00  0.00    +0.002 A 
ATOM     38  C   LIG    1      165.612 120.466 132.935  0.00  0.00    +0.000 A 
ATOM     39  N   LIG    1      166.063 118.805 131.160  0.00  0.00    -0.249 NA
ATOM     40  C   LIG    1      165.586 120.696 132.148  0.00  0.00    +0.001 A 
ATOM     41  C   LIG    1      166.157 118.904 127.857  0.00  0.00    +0.072 C 
ATOM     42  C   LIG    1      166.038 119.033 130.373  0.00  0.00    +0.068 A 
BRANCH  23  43
ATOM     43  C   LIG    1      166.353 117.648 130.602  0.00  0.00    +0.325 C 
ATOM     44  O   LIG    1      165.713 117.233 130.896  0.00  0.00    -0.249 OA
BRANCH  43  45
ATOM     45  O   LIG    1      167.110 117.491 130.878  0.00  0.00    -0.444 OA
ATOM     46  C   LIG    1      167.212 117.117 131.601  0.00  0.00    +0.256 C 
ENDBRANCH  43  45
ENDBRANCH  23  43
BRANCH  27  47
ATOM     47  C   LIG    1      166.406 118.015 126.702  0.00  0.00    +0.032 C 
ATOM     48  C   LIG    1      166.468 117.827 125.901  0.00  0.00    +0.003 C 
ENDBRANCH  27  47
ENDBRANCH  20  23
BRANCH  10  49
ATOM     49  C   LIG    1      167.179 112.430 127.974  0.00  0.00    +0.350 C 
ATOM     50  O   LIG    1      166.929 112.032 128.565  0.00  0.00    -0.247 OA
BRANCH  49  51
ATOM     51  O   LIG    1      166.806 112.296 127.241  0.00  0.00    -0.443 OA
ATOM     52  C   LIG    1      166.227 111.788 127.223  0.00  0.00    +0.256 C 
ENDBRANCH  49  51
ENDBRANCH  10  49
BRANCH   8  53
ATOM     53  C   LIG    1      169.663 112.855 127.651  0.00  0.00    +0.009 C 
ATOM     54  C   LIG    1      170.222 112.723 127.058  0.00  0.00    +0.000 C 
ENDBRANCH   8  53
BRANCH  19  55
ATOM     55  O   LIG    1      165.276 116.210 129.328  0.00  0.00    -0.472 OA
ATOM     56  C   LIG    1      164.531 115.684 129.007  0.00  0.00    +0.252 C 
ENDBRANCH  19  55
BRANCH   9  57
ATOM     57  O   LIG    1      169.054 112.293 127.607  0.00  0.00    -0.449 OA
BRANCH  57  58
ATOM     58  C   LIG    1      169.235 111.828 128.063  0.00  0.00    +0.318 C 
ATOM     59  C   LIG    1      169.436 111.216 127.864  0.00  0.00    +0.121 C 
ATOM     60  O   LIG    1      169.212 111.981 128.721  0.00  0.00    -0.250 OA
ENDBRANCH  57  58
ENDBRANCH   9  57
TORSDOF 10
