REMARK VINA RESULT:      -8.4     23.209     27.605
REMARK  Name = 
REMARK                            x       y       z     vdW  Elec       q    Type
REMARK                         _______ _______ _______ _____ _____    ______ ____
ROOT
ATOM      1  C   LIG    1      207.704 102.261 153.603  0.00  0.00    +0.243 C 
ATOM      2  C   LIG    1      209.005 102.903 154.280  0.00  0.00    +0.196 C 
ATOM      3  O   LIG    1      209.457 101.854 154.541  0.00  0.00    -0.292 OA
ATOM      4  C   LIG    1      209.740 104.004 154.648  0.00  0.00    +0.090 C 
ATOM      5  C   LIG    1      209.261 105.450 154.467  0.00  0.00    +0.093 C 
ATOM      6  C   LIG    1      210.614 106.240 154.747  0.00  0.00    +0.191 C 
ATOM      7  C   LIG    1      210.414 106.519 156.294  0.00  0.00    +0.157 C 
ATOM      8  C   LIG    1      210.735 104.930 156.730  0.00  0.00    +0.067 C 
ATOM      9  O   LIG    1      211.868 106.838 156.364  0.00  0.00    -0.349 OA
ATOM     10  C   LIG    1      211.796 105.778 155.424  0.00  0.00    +0.185 C 
ATOM     11  C   LIG    1      208.247 106.132 155.404  0.00  0.00    +0.201 C 
ATOM     12  C   LIG    1      206.828 105.428 155.374  0.00  0.00    +0.170 C 
ATOM     13  C   LIG    1      206.659 104.902 153.975  0.00  0.00    +0.048 C 
ATOM     14  C   LIG    1      205.140 104.963 153.533  0.00  0.00    +0.007 C 
ATOM     15  C   LIG    1      207.331 105.591 152.875  0.00  0.00    +0.007 C 
ATOM     16  O   LIG    1      205.820 106.377 155.272  0.00  0.00    -0.222 OA
ATOM     17  C   LIG    1      206.451 104.565 156.485  0.00  0.00    +0.082 C 
ATOM     18  C   LIG    1      205.138 103.975 155.638  0.00  0.00    +0.189 C 
ATOM     19  C   LIG    1      206.079 102.821 154.967  0.00  0.00    -0.009 C 
ATOM     20  C   LIG    1      206.068 101.457 155.303  0.00  0.00    +0.029 C 
ATOM     21  C   LIG    1      211.099 103.608 154.468  0.00  0.00    +0.010 C 
ATOM     22  C   LIG    1      209.409 104.174 156.243  0.00  0.00    +0.161 C 
ATOM     23  O   LIG    1      209.913 102.838 156.715  0.00  0.00    -0.223 OA
ATOM     24  C   LIG    1      206.813 103.498 154.126  0.00  0.00    -0.000 C 
ENDROOT
BRANCH   1  25
ATOM     25  O   LIG    1      207.926 102.853 152.210  0.00  0.00    -0.440 OA
BRANCH  25  27
ATOM     26  C   LIG    1      206.499 102.316 150.230  0.00  0.00    +0.121 C 
ATOM     27  C   LIG    1      207.498 101.963 151.239  0.00  0.00    +0.318 C 
ATOM     28  O   LIG    1      207.932 100.787 151.145  0.00  0.00    -0.250 OA
ENDBRANCH  25  27
ENDBRANCH   1  25
BRANCH   6  29
ATOM     29  O   LIG    1      211.032 107.023 153.819  0.00  0.00    -0.451 OA
BRANCH  29  30
ATOM     30  C   LIG    1      211.351 106.958 152.533  0.00  0.00    +0.317 C 
ATOM     31  O   LIG    1      211.425 107.985 151.829  0.00  0.00    -0.250 OA
ATOM     32  C   LIG    1      211.659 105.716 151.739  0.00  0.00    +0.121 C 
ENDBRANCH  29  30
ENDBRANCH   6  29
BRANCH  11  33
ATOM     33  O   LIG    1      208.001 107.374 154.857  0.00  0.00    -0.446 OA
BRANCH  33  34
ATOM     34  C   LIG    1      207.784 108.472 154.371  0.00  0.00    +0.341 C 
ATOM     35  O   LIG    1      207.845 109.195 155.397  0.00  0.00    -0.245 OA
BRANCH  34  36
ATOM     36  C   LIG    1      207.503 109.249 153.184  0.00  0.00    +0.076 A 
ATOM     37  C   LIG    1      206.283 109.958 153.074  0.00  0.00    +0.006 A 
ATOM     38  C   LIG    1      205.988 110.707 151.968  0.00  0.00    +0.000 A 
ATOM     39  C   LIG    1      206.856 110.813 150.909  0.00  0.00    +0.000 A 
ATOM     40  C   LIG    1      208.075 110.128 150.974  0.00  0.00    +0.000 A 
ATOM     41  C   LIG    1      208.309 109.393 152.114  0.00  0.00    +0.006 A 
ENDBRANCH  34  36
ENDBRANCH  33  34
ENDBRANCH  11  33
BRANCH  18  42
ATOM     42  O   LIG    1      204.525 103.087 156.704  0.00  0.00    -0.446 OA
BRANCH  42  43
ATOM     43  C   LIG    1      203.272 103.442 156.903  0.00  0.00    +0.350 C 
ATOM     44  O   LIG    1      202.819 103.658 158.047  0.00  0.00    -0.247 OA
BRANCH  43  45
ATOM     45  C   LIG    1      202.174 103.645 155.737  0.00  0.00    +0.273 C 
ATOM     46  O   LIG    1      201.045 104.064 156.619  0.00  0.00    -0.209 OA
BRANCH  45  47
ATOM     47  C   LIG    1      201.767 101.976 155.788  0.00  0.00    +0.159 C 
BRANCH  47  48
ATOM     48  C   LIG    1      202.516 101.497 154.510  0.00  0.00    +0.000 A 
ATOM     49  C   LIG    1      202.901 100.187 154.586  0.00  0.00    -0.003 A 
ATOM     50  C   LIG    1      203.580  99.567 153.558  0.00  0.00    -0.000 A 
ATOM     51  C   LIG    1      203.856 100.321 152.448  0.00  0.00    -0.000 A 
ATOM     52  C   LIG    1      203.477 101.629 152.359  0.00  0.00    -0.000 A 
ATOM     53  C   LIG    1      202.798 102.188 153.430  0.00  0.00    -0.003 A 
ENDBRANCH  47  48
BRANCH  47  54
ATOM     54  N   LIG    1      200.360 102.215 155.218  0.00  0.00    -0.196 NA
ATOM     55  C   LIG    1      199.333 101.355 155.304  0.00  0.00    +0.265 C 
ATOM     56  O   LIG    1      199.481 100.258 155.883  0.00  0.00    -0.268 OA
BRANCH  55  57
ATOM     57  C   LIG    1      198.039 101.688 154.725  0.00  0.00    +0.055 A 
ATOM     58  C   LIG    1      196.866 101.527 155.433  0.00  0.00    +0.005 A 
ATOM     59  C   LIG    1      195.682 101.860 154.827  0.00  0.00    +0.000 A 
ATOM     60  C   LIG    1      195.614 102.349 153.536  0.00  0.00    +0.000 A 
ATOM     61  C   LIG    1      196.798 102.506 152.840  0.00  0.00    +0.000 A 
ATOM     62  C   LIG    1      197.978 102.172 153.451  0.00  0.00    +0.005 A 
ENDBRANCH  55  57
ENDBRANCH  47  54
ENDBRANCH  45  47
ENDBRANCH  43  45
ENDBRANCH  42  43
ENDBRANCH  18  42
TORSDOF 14
