REMARK VINA RESULT:      -8.3      4.493      6.470
REMARK  Name = ZINC000049420917
REMARK                            x       y       z     vdW  Elec       q    Type
REMARK                         _______ _______ _______ _____ _____    ______ ____
ROOT
ATOM      1  N   LIG    1      168.633 144.888 147.751  0.00  0.00    -0.205 N 
ATOM      2  C   LIG    1      168.213 144.201 146.585  0.00  0.00    +0.160 A 
ATOM      3  N   LIG    1      166.896 144.011 146.418  0.00  0.00    -0.238 NA
ATOM      4  C   LIG    1      166.465 143.360 145.338  0.00  0.00    +0.113 A 
ATOM      5  C   LIG    1      167.344 142.879 144.371  0.00  0.00    +0.022 A 
ATOM      6  C   LIG    1      168.712 143.076 144.528  0.00  0.00    +0.034 A 
ATOM      7  C   LIG    1      169.147 143.743 145.665  0.00  0.00    +0.149 A 
ATOM      8  S   LIG    1      170.819 144.160 146.031  0.00  0.00    +0.082 S 
ATOM      9  O   LIG    1      171.339 143.238 146.967  0.00  0.00    -0.150 OA
ATOM     10  O   LIG    1      171.536 144.310 144.817  0.00  0.00    -0.150 OA
ATOM     11  N   LIG    1      170.674 145.623 146.756  0.00  0.00    -0.150 N 
ATOM     12  C   LIG    1      169.867 145.550 147.848  0.00  0.00    +0.334 C 
ATOM     13  O   LIG    1      170.212 146.074 148.903  0.00  0.00    -0.250 OA
ENDROOT
BRANCH   1  18
ATOM     14  C   LIG    1      165.253 144.851 152.355  0.00  0.00    +0.044 C 
ATOM     15  C   LIG    1      166.143 144.855 151.130  0.00  0.00    -0.050 A 
ATOM     16  C   LIG    1      166.101 145.927 150.237  0.00  0.00    +0.005 A 
ATOM     17  C   LIG    1      166.924 145.944 149.116  0.00  0.00    +0.024 A 
ATOM     18  C   LIG    1      167.793 144.876 148.897  0.00  0.00    +0.044 A 
ATOM     19  C   LIG    1      167.851 143.800 149.781  0.00  0.00    +0.024 A 
ATOM     20  C   LIG    1      167.023 143.795 150.899  0.00  0.00    +0.005 A 
ENDBRANCH   1  18
BRANCH  11  21
ATOM     21  C   LIG    1      171.931 146.363 146.842  0.00  0.00    +0.171 C 
BRANCH  21  22
ATOM     22  C   LIG    1      171.583 147.725 146.275  0.00  0.00    -0.028 A 
ATOM     23  C   LIG    1      171.714 148.867 147.072  0.00  0.00    +0.008 A 
ATOM     24  C   LIG    1      171.401 150.123 146.556  0.00  0.00    +0.038 A 
ATOM     25  C   LIG    1      170.966 150.214 145.242  0.00  0.00    +0.123 A 
ATOM     26  F   LIG    1      170.660 151.433 144.737  0.00  0.00    -0.205 F 
ATOM     27  C   LIG    1      170.834 149.098 144.427  0.00  0.00    +0.038 A 
ATOM     28  C   LIG    1      171.147 147.846 144.951  0.00  0.00    +0.008 A 
ENDBRANCH  21  22
ENDBRANCH  11  21
TORSDOF 3
