REMARK VINA RESULT:      -7.8      1.950      2.203
REMARK  Name = ZINC000006087320
REMARK                            x       y       z     vdW  Elec       q    Type
REMARK                         _______ _______ _______ _____ _____    ______ ____
ROOT
ATOM      1  C   LIG    1      164.331 161.371 155.271  0.00  0.00    +0.222 C 
ENDROOT
BRANCH   1   2
ATOM      2  N   LIG    1      163.386 161.191 156.399  0.00  0.00    -0.290 N 
ATOM      3  C   LIG    1      163.531 161.923 157.564  0.00  0.00    +0.262 A 
ATOM      4  O   LIG    1      164.480 162.711 157.626  0.00  0.00    -0.267 OA
ATOM      5  C   LIG    1      162.579 161.705 158.631  0.00  0.00    +0.068 A 
ATOM      6  C   LIG    1      162.636 162.425 159.835  0.00  0.00    +0.035 A 
ATOM      7  C   LIG    1      161.702 162.180 160.835  0.00  0.00    +0.043 A 
ATOM      8 CL   LIG    1      161.776 163.067 162.318  0.00  0.00    -0.083 Cl
ATOM      9  C   LIG    1      160.705 161.219 160.651  0.00  0.00    +0.042 A 
ATOM     10  C   LIG    1      160.645 160.504 159.462  0.00  0.00    +0.068 A 
ATOM     11 CL   LIG    1      159.391 159.317 159.268  0.00  0.00    -0.081 Cl
ATOM     12  C   LIG    1      161.585 160.738 158.434  0.00  0.00    +0.096 A 
ATOM     13  N   LIG    1      161.549 160.020 157.223  0.00  0.00    -0.235 NA
ATOM     14  C   LIG    1      162.393 160.234 156.287  0.00  0.00    +0.203 A 
ENDBRANCH   1   2
BRANCH   1  17
ATOM     15  N   LIG    1      162.991 162.907 153.886  0.00  0.00    -0.284 N 
ATOM     16  H   LIG    1      163.231 163.554 154.658  0.00  0.00    +0.155 HD
ATOM     17  C   LIG    1      163.510 161.642 154.021  0.00  0.00    +0.237 C 
ATOM     18  O   LIG    1      163.341 160.785 153.180  0.00  0.00    -0.274 OA
BRANCH  15  20
ATOM     19  C   LIG    1      160.782 163.565 153.148  0.00  0.00    -0.026 A 
ATOM     20  C   LIG    1      162.156 163.445 152.872  0.00  0.00    +0.037 A 
ATOM     21  C   LIG    1      162.676 163.870 151.645  0.00  0.00    +0.023 A 
ATOM     22  C   LIG    1      161.825 164.391 150.679  0.00  0.00    +0.002 A 
ATOM     23  C   LIG    1      160.462 164.499 150.935  0.00  0.00    +0.000 A 
ATOM     24  C   LIG    1      159.947 164.089 152.162  0.00  0.00    +0.005 A 
BRANCH  19  26
ATOM     25  C   LIG    1      159.802 164.424 155.227  0.00  0.00    +0.009 C 
ATOM     26  C   LIG    1      160.164 163.136 154.473  0.00  0.00    +0.033 C 
ENDBRANCH  19  26
ENDBRANCH  15  20
ENDBRANCH   1  17
TORSDOF 4
