REMARK VINA RESULT:      -7.1      3.402      3.622
REMARK  Name = ZINC000193545175
REMARK                            x       y       z     vdW  Elec       q    Type
REMARK                         _______ _______ _______ _____ _____    ______ ____
ROOT
ATOM      1  C   LIG    1      168.284 149.873 145.790  0.00  0.00    +0.171 A 
ATOM      2  N   LIG    1      167.659 148.672 145.578  0.00  0.00    -0.204 NA
ATOM      3  C   LIG    1      168.531 147.835 145.137  0.00  0.00    +0.185 A 
ATOM      4  S   LIG    1      170.111 148.478 144.974  0.00  0.00    +0.050 S 
ATOM      5  N   LIG    1      169.564 149.929 145.522  0.00  0.00    -0.187 NA
ENDROOT
BRANCH   1   8
ATOM      6  C   LIG    1      167.410 152.985 147.743  0.00  0.00    +0.121 A 
ATOM      7  C   LIG    1      168.113 151.879 147.272  0.00  0.00    +0.057 A 
ATOM      8  C   LIG    1      167.550 151.042 146.295  0.00  0.00    +0.023 A 
ATOM      9  C   LIG    1      166.265 151.359 145.817  0.00  0.00    +0.012 A 
ATOM     10  C   LIG    1      165.570 152.467 146.294  0.00  0.00    +0.004 A 
ATOM     11  C   LIG    1      166.142 153.286 147.260  0.00  0.00    +0.045 A 
BRANCH   6  13
ATOM     12  C   LIG    1      168.378 153.419 150.013  0.00  0.00    +0.277 C 
ATOM     13  O   LIG    1      167.931 153.827 148.700  0.00  0.00    -0.495 OA
ENDBRANCH   6  13
ENDBRANCH   1   8
BRANCH   3  14
ATOM     14  N   LIG    1      168.120 146.533 144.849  0.00  0.00    -0.259 N 
ATOM     15  H   LIG    1      167.891 146.368 143.865  0.00  0.00    +0.157 HD
ATOM     16  C   LIG    1      168.002 145.466 145.698  0.00  0.00    +0.254 C 
ATOM     17  O   LIG    1      168.292 145.634 146.872  0.00  0.00    -0.270 OA
BRANCH  16  18
ATOM     18  C   LIG    1      167.553 144.181 145.182  0.00  0.00    +0.089 A 
ATOM     19  C   LIG    1      166.368 143.520 145.369  0.00  0.00    +0.182 A 
ATOM     20 BR   LIG    1      164.800 143.918 146.346  0.00  0.00    -0.008 Br
ATOM     21  O   LIG    1      166.387 142.351 144.695  0.00  0.00    -0.456 OA
ATOM     22  C   LIG    1      167.585 142.251 144.072  0.00  0.00    +0.197 A 
ATOM     23  C   LIG    1      168.322 143.347 144.347  0.00  0.00    +0.055 A 
ENDBRANCH  16  18
ENDBRANCH   3  14
TORSDOF 4
