REMARK VINA RESULT:      -6.9      3.231      8.401
REMARK  Name = ZINC000193545175
REMARK                            x       y       z     vdW  Elec       q    Type
REMARK                         _______ _______ _______ _____ _____    ______ ____
ROOT
ATOM      1  C   LIG    1      169.809 149.467 145.772  0.00  0.00    +0.171 A 
ATOM      2  N   LIG    1      168.746 149.804 146.568  0.00  0.00    -0.204 NA
ATOM      3  C   LIG    1      168.946 150.989 147.028  0.00  0.00    +0.185 A 
ATOM      4  S   LIG    1      170.410 151.713 146.509  0.00  0.00    +0.050 S 
ATOM      5  N   LIG    1      170.757 150.359 145.642  0.00  0.00    -0.187 NA
ENDROOT
BRANCH   1   8
ATOM      6  C   LIG    1      168.881 146.028 144.514  0.00  0.00    +0.121 A 
ATOM      7  C   LIG    1      168.805 147.260 145.159  0.00  0.00    +0.057 A 
ATOM      8  C   LIG    1      169.879 148.163 145.096  0.00  0.00    +0.023 A 
ATOM      9  C   LIG    1      171.020 147.781 144.366  0.00  0.00    +0.012 A 
ATOM     10  C   LIG    1      171.086 146.547 143.724  0.00  0.00    +0.004 A 
ATOM     11  C   LIG    1      170.015 145.665 143.796  0.00  0.00    +0.045 A 
BRANCH   6  13
ATOM     12  C   LIG    1      167.518 144.286 145.690  0.00  0.00    +0.277 C 
ATOM     13  O   LIG    1      167.848 145.118 144.554  0.00  0.00    -0.495 OA
ENDBRANCH   6  13
ENDBRANCH   1   8
BRANCH   3  14
ATOM     14  N   LIG    1      167.985 151.549 147.871  0.00  0.00    -0.259 N 
ATOM     15  H   LIG    1      168.142 151.377 148.868  0.00  0.00    +0.157 HD
ATOM     16  C   LIG    1      166.888 152.298 147.539  0.00  0.00    +0.254 C 
ATOM     17  O   LIG    1      166.693 152.535 146.357  0.00  0.00    -0.270 OA
BRANCH  16  18
ATOM     18  C   LIG    1      166.008 152.791 148.588  0.00  0.00    +0.089 A 
ATOM     19  C   LIG    1      166.287 153.560 149.686  0.00  0.00    +0.182 A 
ATOM     20 BR   LIG    1      167.876 154.324 150.365  0.00  0.00    -0.008 Br
ATOM     21  O   LIG    1      165.156 153.778 150.389  0.00  0.00    -0.456 OA
ATOM     22  C   LIG    1      164.142 153.149 149.749  0.00  0.00    +0.197 A 
ATOM     23  C   LIG    1      164.624 152.536 148.648  0.00  0.00    +0.055 A 
ENDBRANCH  16  18
ENDBRANCH   3  14
TORSDOF 4
