REMARK VINA RESULT:      -7.5      5.577      9.598
REMARK  Name = 
REMARK                            x       y       z     vdW  Elec       q    Type
REMARK                         _______ _______ _______ _____ _____    ______ ____
ROOT
ATOM      1  O   LIG    1      171.813 147.577 145.911  0.00  0.00    -0.346 OA
ENDROOT
BRANCH   1   7
ATOM      2  C   LIG    1      168.482 143.083 144.659  0.00  0.00    +0.398 A 
ATOM      3  N   LIG    1      169.237 143.536 143.617  0.00  0.00    -0.128 NA
ATOM      4  C   LIG    1      169.853 144.665 143.946  0.00  0.00    +0.306 A 
ATOM      5  O   LIG    1      170.724 145.506 143.238  0.00  0.00    -0.445 OA
ATOM      6  C   LIG    1      171.155 146.700 143.863  0.00  0.00    +0.240 C 
ATOM      7  C   LIG    1      171.598 146.146 145.393  0.00  0.00    +0.182 C 
ATOM      8  C   LIG    1      169.994 146.139 145.908  0.00  0.00    +0.144 C 
ATOM      9  N   LIG    1      169.503 144.957 145.207  0.00  0.00    -0.272 N 
ATOM     10  C   LIG    1      168.669 144.002 145.653  0.00  0.00    +0.178 A 
BRANCH   2  12
ATOM     11  O   LIG    1      167.979 141.128 144.615  0.00  0.00    +0.043 OA
ATOM     12  N   LIG    1      167.676 141.896 144.679  0.00  0.00    +0.103 N 
ATOM     13  O   LIG    1      166.301 142.119 144.816  0.00  0.00    -0.575 OA
ENDBRANCH   2  12
ENDBRANCH   1   7
BRANCH   1  14
ATOM     14  C   LIG    1      171.046 148.333 145.022  0.00  0.00    +0.169 C 
BRANCH  14  15
ATOM     15  C   LIG    1      170.606 149.609 145.673  0.00  0.00    +0.007 A 
ATOM     16  C   LIG    1      169.273 149.980 145.685  0.00  0.00    +0.001 A 
ATOM     17  C   LIG    1      168.823 151.136 146.266  0.00  0.00    +0.037 A 
ATOM     18  C   LIG    1      169.748 151.983 146.878  0.00  0.00    +0.147 A 
ATOM     19  C   LIG    1      171.075 151.645 146.886  0.00  0.00    +0.037 A 
ATOM     20  C   LIG    1      171.494 150.469 146.287  0.00  0.00    +0.001 A 
BRANCH  18  21
ATOM     21  O   LIG    1      169.287 153.158 147.470  0.00  0.00    -0.404 OA
BRANCH  21  22
ATOM     22  C   LIG    1      169.027 153.147 148.876  0.00  0.00    +0.575 C 
ATOM     23  F   LIG    1      168.485 154.362 149.243  0.00  0.00    -0.133 F 
ATOM     24  F   LIG    1      170.216 152.981 149.579  0.00  0.00    -0.133 F 
ATOM     25  F   LIG    1      168.138 152.120 149.141  0.00  0.00    -0.133 F 
ENDBRANCH  21  22
ENDBRANCH  18  21
ENDBRANCH  14  15
ENDBRANCH   1  14
TORSDOF 6
