REMARK VINA RESULT:      -7.3      2.845      5.273
REMARK  Name = 
REMARK                            x       y       z     vdW  Elec       q    Type
REMARK                         _______ _______ _______ _____ _____    ______ ____
ROOT
ATOM      1  C   LIG    1      200.088 115.672 143.044  0.00  0.00    +0.072 C 
ATOM      2  C   LIG    1      199.689 115.900 141.512  0.00  0.00    +0.070 C 
ATOM      3  N   LIG    1      198.836 114.620 141.356  0.00  0.00    -0.269 NA
ATOM      4  C   LIG    1      199.380 113.900 140.291  0.00  0.00    +0.073 C 
ATOM      5  C   LIG    1      200.840 113.839 140.767  0.00  0.00    +0.024 C 
ATOM      6  C   LIG    1      198.431 113.995 142.505  0.00  0.00    +0.099 C 
ATOM      7  C   LIG    1      199.647 113.453 143.229  0.00  0.00    -0.013 C 
ATOM      8  C   LIG    1      201.019 115.323 140.821  0.00  0.00    +0.055 C 
ATOM      9  C   LIG    1      202.230 115.653 141.806  0.00  0.00    +0.120 C 
ATOM     10  C   LIG    1      201.883 117.138 142.304  0.00  0.00    +0.268 C 
ATOM     11  O   LIG    1      203.143 117.317 142.915  0.00  0.00    -0.209 OA
ATOM     12  N   LIG    1      203.240 116.162 140.731  0.00  0.00    -0.304 N 
ATOM     13  C   LIG    1      204.613 116.419 141.059  0.00  0.00    +0.112 C 
ATOM     14  C   LIG    1      202.586 116.290 139.525  0.00  0.00    +0.047 A 
ATOM     15  C   LIG    1      203.084 116.824 138.362  0.00  0.00    +0.051 A 
ATOM     16  C   LIG    1      202.367 116.910 137.190  0.00  0.00    +0.137 A 
ATOM     17  C   LIG    1      201.091 116.428 137.211  0.00  0.00    +0.026 A 
ATOM     18  C   LIG    1      200.601 115.895 138.385  0.00  0.00    -0.003 A 
ATOM     19  C   LIG    1      201.316 115.810 139.557  0.00  0.00    -0.007 A 
ATOM     20  C   LIG    1      200.859 116.987 143.543  0.00  0.00    +0.213 C 
ATOM     21  C   LIG    1      200.482 114.466 143.470  0.00  0.00    -0.025 C 
ENDROOT
BRANCH  17  22
ATOM     22  C   LIG    1      200.271 116.470 135.948  0.00  0.00    +0.146 C 
ATOM     23  C   LIG    1      198.963 115.841 136.054  0.00  0.00    +0.068 A 
ATOM     24  C   LIG    1      197.962 115.785 135.143  0.00  0.00    -0.005 A 
ATOM     25  C   LIG    1      196.903 115.104 135.717  0.00  0.00    +0.015 A 
ATOM     26  C   LIG    1      197.282 114.755 136.979  0.00  0.00    +0.081 A 
ATOM     27  C   LIG    1      196.476 114.055 137.866  0.00  0.00    +0.019 A 
ATOM     28  C   LIG    1      195.225 113.688 137.462  0.00  0.00    +0.002 A 
ATOM     29  C   LIG    1      194.822 114.030 136.193  0.00  0.00    +0.000 A 
ATOM     30  C   LIG    1      195.642 114.734 135.312  0.00  0.00    +0.001 A 
ATOM     31  C   LIG    1      198.012 116.378 133.739  0.00  0.00    +0.045 C 
ATOM     32  C   LIG    1      198.137 115.271 132.711  0.00  0.00    +0.077 C 
ATOM     33  N   LIG    1      199.393 115.425 131.935  0.00  0.00    -0.270 NA
ATOM     34  C   LIG    1      199.866 114.161 131.486  0.00  0.00    +0.103 C 
ATOM     35  C   LIG    1      201.073 113.606 132.105  0.00  0.00    +0.141 C 
ATOM     36  C   LIG    1      201.345 113.877 133.528  0.00  0.00    +0.033 C 
ATOM     37  C   LIG    1      200.201 114.912 134.080  0.00  0.00    +0.020 C 
ATOM     38  O   LIG    1      202.250 113.934 131.382  0.00  0.00    -0.224 OA
ATOM     39  C   LIG    1      200.441 115.923 132.805  0.00  0.00    +0.072 C 
ATOM     40  N   LIG    1      198.508 115.203 137.154  0.00  0.00    -0.249 NA
ATOM     41  C   LIG    1      201.179 115.756 135.005  0.00  0.00    +0.022 C 
BRANCH  35  42
ATOM     42  C   LIG    1      200.987 112.070 131.978  0.00  0.00    +0.032 C 
ATOM     43  C   LIG    1      201.804 111.620 133.205  0.00  0.00    +0.003 C 
ENDBRANCH  35  42
BRANCH  22  44
ATOM     44  C   LIG    1      200.088 117.909 135.720  0.00  0.00    +0.325 C 
ATOM     45  O   LIG    1      199.471 118.535 136.593  0.00  0.00    -0.249 OA
BRANCH  44  46
ATOM     46  O   LIG    1      200.515 118.661 134.653  0.00  0.00    -0.444 OA
ATOM     47  C   LIG    1      199.686 119.686 134.146  0.00  0.00    +0.256 C 
ENDBRANCH  44  46
ENDBRANCH  22  44
ENDBRANCH  17  22
BRANCH   1  49
ATOM     48  C   LIG    1      198.565 117.264 143.680  0.00  0.00    +0.001 C 
ATOM     49  C   LIG    1      198.709 116.035 143.685  0.00  0.00    +0.009 C 
ENDBRANCH   1  49
BRANCH  10  50
ATOM     50  C   LIG    1      201.624 118.188 141.485  0.00  0.00    +0.350 C 
ATOM     51  O   LIG    1      202.557 119.050 141.432  0.00  0.00    -0.247 OA
BRANCH  50  52
ATOM     52  O   LIG    1      200.633 118.657 140.649  0.00  0.00    -0.443 OA
ATOM     53  C   LIG    1      199.902 119.836 140.721  0.00  0.00    +0.256 C 
ENDBRANCH  50  52
ENDBRANCH  10  50
BRANCH  16  54
ATOM     54  O   LIG    1      202.959 117.480 136.035  0.00  0.00    -0.472 OA
ATOM     55  C   LIG    1      204.370 117.626 135.997  0.00  0.00    +0.252 C 
ENDBRANCH  16  54
BRANCH  20  56
ATOM     56  O   LIG    1      201.764 116.277 144.510  0.00  0.00    -0.449 OA
BRANCH  56  57
ATOM     57  C   LIG    1      201.575 116.364 145.845  0.00  0.00    +0.318 C 
ATOM     58  O   LIG    1      201.921 115.433 146.609  0.00  0.00    -0.250 OA
ATOM     59  C   LIG    1      200.945 117.571 146.466  0.00  0.00    +0.121 C 
ENDBRANCH  56  57
ENDBRANCH  20  56
TORSDOF 10
