REMARK VINA RESULT:      -7.6      2.159      2.589
REMARK  Name = ZINC000049483826
REMARK                            x       y       z     vdW  Elec       q    Type
REMARK                         _______ _______ _______ _____ _____    ______ ____
ROOT
ATOM      1  N   LIG    1      169.943 148.430 146.335  0.00  0.00    -0.175 NA
ATOM      2  C   LIG    1      169.268 149.490 145.579  0.00  0.00    +0.123 C 
ATOM      3  C   LIG    1      169.932 150.485 146.564  0.00  0.00    +0.109 C 
ATOM      4  C   LIG    1      170.171 149.280 147.509  0.00  0.00    +0.123 C 
ENDROOT
BRANCH   3   5
ATOM      5  C   LIG    1      168.954 151.487 147.129  0.00  0.00    +0.233 A 
ATOM      6  O   LIG    1      169.167 152.772 146.943  0.00  0.00    -0.337 OA
ATOM      7  N   LIG    1      168.190 153.435 147.522  0.00  0.00    -0.056 NA
ATOM      8  C   LIG    1      167.422 152.534 148.035  0.00  0.00    +0.209 A 
ATOM      9  N   LIG    1      167.892 151.283 147.795  0.00  0.00    -0.191 NA
BRANCH   8  10
ATOM     10  C   LIG    1      166.203 152.825 148.778  0.00  0.00    +0.060 A 
ATOM     11  S   LIG    1      166.216 153.810 150.211  0.00  0.00    -0.093 S 
ATOM     12  C   LIG    1      164.510 153.635 150.403  0.00  0.00    +0.046 A 
ATOM     13  C   LIG    1      163.966 152.862 149.416  0.00  0.00    +0.008 A 
ATOM     14  C   LIG    1      164.923 152.403 148.499  0.00  0.00    +0.019 A 
ENDBRANCH   8  10
ENDBRANCH   3   5
BRANCH   1  15
ATOM     15  S   LIG    1      171.117 147.491 145.673  0.00  0.00    +0.061 S 
ATOM     16  O   LIG    1      171.174 147.741 144.275  0.00  0.00    -0.153 OA
ATOM     17  O   LIG    1      172.318 147.715 146.403  0.00  0.00    -0.153 OA
BRANCH  15  20
ATOM     18  C   LIG    1      168.438 146.118 144.575  0.00  0.00    +0.046 C 
ATOM     19  C   LIG    1      169.364 145.271 145.435  0.00  0.00    -0.024 A 
ATOM     20  C   LIG    1      170.566 145.785 145.962  0.00  0.00    +0.110 A 
ATOM     21  C   LIG    1      171.373 144.949 146.740  0.00  0.00    +0.048 A 
ATOM     22  C   LIG    1      170.998 143.632 146.996  0.00  0.00    +0.043 A 
ATOM     23 CL   LIG    1      172.011 142.620 147.968  0.00  0.00    -0.083 Cl
ATOM     24  C   LIG    1      169.810 143.130 146.473  0.00  0.00    +0.020 A 
ATOM     25  C   LIG    1      169.001 143.948 145.697  0.00  0.00    +0.007 A 
ENDBRANCH  15  20
ENDBRANCH   1  15
TORSDOF 4
