REMARK VINA RESULT:      -6.4     41.078     45.807
REMARK  Name = ZINC000022625070
REMARK                            x       y       z     vdW  Elec       q    Type
REMARK                         _______ _______ _______ _____ _____    ______ ____
ROOT
ATOM      1  C   LIG    1      167.702 141.817 151.259  0.00  0.00    +0.171 A 
ATOM      2  C   LIG    1      166.982 142.682 150.435  0.00  0.00    +0.032 A 
ATOM      3  C   LIG    1      167.150 143.125 148.992  0.00  0.00    +0.046 C 
ATOM      4  C   LIG    1      165.743 143.450 148.416  0.00  0.00    +0.040 C 
ATOM      5  C   LIG    1      164.935 144.347 149.366  0.00  0.00    -0.036 A 
ATOM      6  C   LIG    1      165.042 144.168 150.756  0.00  0.00    +0.027 A 
ATOM      7  C   LIG    1      164.244 144.917 151.624  0.00  0.00    +0.057 A 
ATOM      8  C   LIG    1      163.358 145.856 151.097  0.00  0.00    +0.121 A 
ATOM      9  C   LIG    1      163.259 146.052 149.722  0.00  0.00    +0.046 A 
ATOM     10  C   LIG    1      164.044 145.292 148.859  0.00  0.00    +0.008 A 
ATOM     11  C   LIG    1      166.021 143.209 151.206  0.00  0.00    +0.171 A 
ATOM     12  O   LIG    1      166.152 142.691 152.433  0.00  0.00    -0.354 OA
ATOM     13  N   LIG    1      167.175 141.842 152.464  0.00  0.00    -0.073 NA
ENDROOT
BRANCH   1  16
ATOM     14  N   LIG    1      170.111 141.519 151.126  0.00  0.00    -0.307 N 
ATOM     15  H   LIG    1      170.138 142.477 151.498  0.00  0.00    +0.149 HD
ATOM     16  C   LIG    1      168.866 141.007 150.883  0.00  0.00    +0.266 C 
ATOM     17  O   LIG    1      168.800 139.898 150.354  0.00  0.00    -0.268 OA
BRANCH  14  18
ATOM     18  C   LIG    1      171.339 140.943 150.614  0.00  0.00    +0.070 C 
ATOM     19  C   LIG    1      172.186 140.585 151.835  0.00  0.00    +0.028 C 
BRANCH  18  20
ATOM     20  C   LIG    1      172.003 141.978 149.687  0.00  0.00    +0.023 C 
BRANCH  20  21
ATOM     21  C   LIG    1      171.800 141.755 148.172  0.00  0.00    +0.017 C 
BRANCH  21  22
ATOM     22  C   LIG    1      170.776 142.819 147.706  0.00  0.00    +0.084 C 
BRANCH  22  23
ATOM     23  N   LIG    1      171.318 143.575 146.546  0.00  0.00    -0.303 NA
BRANCH  23  25
ATOM     24  C   LIG    1      169.092 143.030 145.920  0.00  0.00    +0.020 C 
ATOM     25  C   LIG    1      170.296 143.887 145.522  0.00  0.00    +0.081 C 
ENDBRANCH  23  25
BRANCH  23  26
ATOM     26  C   LIG    1      172.136 144.740 146.936  0.00  0.00    +0.081 C 
ATOM     27  C   LIG    1      171.472 145.944 146.255  0.00  0.00    +0.020 C 
ENDBRANCH  23  26
ENDBRANCH  22  23
ENDBRANCH  21  22
ENDBRANCH  20  21
ENDBRANCH  18  20
ENDBRANCH  14  18
ENDBRANCH   1  16
BRANCH   8  28
ATOM     28  O   LIG    1      162.550 146.628 151.901  0.00  0.00    -0.495 OA
ATOM     29  C   LIG    1      161.220 147.077 151.555  0.00  0.00    +0.277 C 
ENDBRANCH   8  28
TORSDOF 9
