MODEL 1
REMARK VINA RESULT:      -8.7      0.000      0.000
REMARK  Name = ZINC000049420917
REMARK                            x       y       z     vdW  Elec       q    Type
REMARK                         _______ _______ _______ _____ _____    ______ ____
ROOT
ATOM      1  N   LIG    1      170.041 148.709 147.243  0.00  0.00    -0.205 N 
ATOM      2  C   LIG    1      169.241 149.128 146.151  0.00  0.00    +0.160 A 
ATOM      3  N   LIG    1      168.582 148.183 145.465  0.00  0.00    -0.238 NA
ATOM      4  C   LIG    1      167.828 148.539 144.427  0.00  0.00    +0.113 A 
ATOM      5  C   LIG    1      167.696 149.870 144.037  0.00  0.00    +0.022 A 
ATOM      6  C   LIG    1      168.367 150.862 144.744  0.00  0.00    +0.034 A 
ATOM      7  C   LIG    1      169.161 150.473 145.815  0.00  0.00    +0.149 A 
ATOM      8  S   LIG    1      170.040 151.562 146.885  0.00  0.00    +0.082 S 
ATOM      9  O   LIG    1      171.404 151.585 146.515  0.00  0.00    -0.150 OA
ATOM     10  O   LIG    1      169.370 152.810 146.931  0.00  0.00    -0.150 OA
ATOM     11  N   LIG    1      169.903 150.823 148.342  0.00  0.00    -0.150 N 
ATOM     12  C   LIG    1      170.403 149.559 148.299  0.00  0.00    +0.334 C 
ATOM     13  O   LIG    1      171.153 149.165 149.187  0.00  0.00    -0.250 OA
ENDROOT
BRANCH   1  18
ATOM     14  C   LIG    1      172.048 143.362 147.310  0.00  0.00    +0.044 C 
ATOM     15  C   LIG    1      171.512 144.778 147.283  0.00  0.00    -0.050 A 
ATOM     16  C   LIG    1      170.345 145.098 147.979  0.00  0.00    +0.005 A 
ATOM     17  C   LIG    1      169.853 146.399 147.969  0.00  0.00    +0.024 A 
ATOM     18  C   LIG    1      170.542 147.380 147.258  0.00  0.00    +0.044 A 
ATOM     19  C   LIG    1      171.712 147.077 146.562  0.00  0.00    +0.024 A 
ATOM     20  C   LIG    1      172.194 145.773 146.580  0.00  0.00    +0.005 A 
ENDBRANCH   1  18
BRANCH  11  21
ATOM     21  C   LIG    1      170.233 151.687 149.473  0.00  0.00    +0.171 C 
BRANCH  21  22
ATOM     22  C   LIG    1      168.912 152.346 149.817  0.00  0.00    -0.028 A 
ATOM     23  C   LIG    1      168.885 153.685 150.224  0.00  0.00    +0.008 A 
ATOM     24  C   LIG    1      167.675 154.298 150.536  0.00  0.00    +0.038 A 
ATOM     25  C   LIG    1      166.505 153.559 150.431  0.00  0.00    +0.123 A 
ATOM     26  F   LIG    1      165.326 154.152 150.734  0.00  0.00    -0.205 F 
ATOM     27  C   LIG    1      166.503 152.232 150.023  0.00  0.00    +0.038 A 
ATOM     28  C   LIG    1      167.717 151.625 149.714  0.00  0.00    +0.008 A 
ENDBRANCH  21  22
ENDBRANCH  11  21
TORSDOF 3
ENDMDL
MODEL 2
REMARK VINA RESULT:      -8.4      3.034      4.628
REMARK  Name = ZINC000049420917
REMARK                            x       y       z     vdW  Elec       q    Type
REMARK                         _______ _______ _______ _____ _____    ______ ____
ROOT
ATOM      1  N   LIG    1      169.638 145.816 147.307  0.00  0.00    -0.205 N 
ATOM      2  C   LIG    1      169.662 145.222 146.022  0.00  0.00    +0.160 A 
ATOM      3  N   LIG    1      168.912 144.127 145.830  0.00  0.00    -0.238 NA
ATOM      4  C   LIG    1      168.917 143.536 144.636  0.00  0.00    +0.113 A 
ATOM      5  C   LIG    1      169.673 144.030 143.575  0.00  0.00    +0.022 A 
ATOM      6  C   LIG    1      170.449 145.169 143.757  0.00  0.00    +0.034 A 
ATOM      7  C   LIG    1      170.445 145.765 145.012  0.00  0.00    +0.149 A 
ATOM      8  S   LIG    1      171.295 147.247 145.443  0.00  0.00    +0.082 S 
ATOM      9  O   LIG    1      172.480 146.922 146.141  0.00  0.00    -0.150 OA
ATOM     10  O   LIG    1      171.436 148.055 144.288  0.00  0.00    -0.150 OA
ATOM     11  N   LIG    1      170.253 147.969 146.482  0.00  0.00    -0.150 N 
ATOM     12  C   LIG    1      169.973 147.158 147.538  0.00  0.00    +0.334 C 
ATOM     13  O   LIG    1      170.002 147.607 148.680  0.00  0.00    -0.250 OA
ENDROOT
BRANCH   1  18
ATOM     14  C   LIG    1      168.299 142.582 151.821  0.00  0.00    +0.044 C 
ATOM     15  C   LIG    1      168.655 143.446 150.630  0.00  0.00    -0.050 A 
ATOM     16  C   LIG    1      169.937 143.388 150.081  0.00  0.00    +0.005 A 
ATOM     17  C   LIG    1      170.268 144.170 148.980  0.00  0.00    +0.024 A 
ATOM     18  C   LIG    1      169.303 145.012 148.430  0.00  0.00    +0.044 A 
ATOM     19  C   LIG    1      168.017 145.078 148.964  0.00  0.00    +0.024 A 
ATOM     20  C   LIG    1      167.697 144.291 150.065  0.00  0.00    +0.005 A 
ENDBRANCH   1  18
BRANCH  11  21
ATOM     21  C   LIG    1      170.544 149.381 146.720  0.00  0.00    +0.171 C 
BRANCH  21  22
ATOM     22  C   LIG    1      169.263 150.083 146.313  0.00  0.00    -0.028 A 
ATOM     23  C   LIG    1      168.381 150.549 147.295  0.00  0.00    +0.008 A 
ATOM     24  C   LIG    1      167.206 151.200 146.929  0.00  0.00    +0.038 A 
ATOM     25  C   LIG    1      166.934 151.379 145.580  0.00  0.00    +0.123 A 
ATOM     26  F   LIG    1      165.791 152.010 145.220  0.00  0.00    -0.205 F 
ATOM     27  C   LIG    1      167.795 150.933 144.587  0.00  0.00    +0.038 A 
ATOM     28  C   LIG    1      168.968 150.282 144.960  0.00  0.00    +0.008 A 
ENDBRANCH  21  22
ENDBRANCH  11  21
TORSDOF 3
ENDMDL
MODEL 3
REMARK VINA RESULT:      -8.4      4.505      6.045
REMARK  Name = ZINC000049420917
REMARK                            x       y       z     vdW  Elec       q    Type
REMARK                         _______ _______ _______ _____ _____    ______ ____
ROOT
ATOM      1  N   LIG    1      169.766 144.200 147.419  0.00  0.00    -0.205 N 
ATOM      2  C   LIG    1      168.414 144.321 147.015  0.00  0.00    +0.160 A 
ATOM      3  N   LIG    1      167.468 144.099 147.939  0.00  0.00    -0.238 NA
ATOM      4  C   LIG    1      166.185 144.194 147.592  0.00  0.00    +0.113 A 
ATOM      5  C   LIG    1      165.798 144.529 146.296  0.00  0.00    +0.022 A 
ATOM      6  C   LIG    1      166.768 144.769 145.330  0.00  0.00    +0.034 A 
ATOM      7  C   LIG    1      168.101 144.652 145.703  0.00  0.00    +0.149 A 
ATOM      8  S   LIG    1      169.487 144.977 144.666  0.00  0.00    +0.082 S 
ATOM      9  O   LIG    1      170.019 143.756 144.195  0.00  0.00    -0.150 OA
ATOM     10  O   LIG    1      169.119 145.933 143.686  0.00  0.00    -0.150 OA
ATOM     11  N   LIG    1      170.561 145.655 145.703  0.00  0.00    -0.150 N 
ATOM     12  C   LIG    1      170.827 144.822 146.744  0.00  0.00    +0.334 C 
ATOM     13  O   LIG    1      171.987 144.631 147.096  0.00  0.00    -0.250 OA
ENDROOT
BRANCH   1  18
ATOM     14  C   LIG    1      171.024 140.901 151.909  0.00  0.00    +0.044 C 
ATOM     15  C   LIG    1      170.682 141.772 150.719  0.00  0.00    -0.050 A 
ATOM     16  C   LIG    1      170.362 143.118 150.905  0.00  0.00    +0.005 A 
ATOM     17  C   LIG    1      170.057 143.927 149.816  0.00  0.00    +0.024 A 
ATOM     18  C   LIG    1      170.080 143.377 148.535  0.00  0.00    +0.044 A 
ATOM     19  C   LIG    1      170.403 142.036 148.332  0.00  0.00    +0.024 A 
ATOM     20  C   LIG    1      170.705 141.237 149.429  0.00  0.00    +0.005 A 
ENDBRANCH   1  18
BRANCH  11  21
ATOM     21  C   LIG    1      171.662 146.348 145.038  0.00  0.00    +0.171 C 
BRANCH  21  22
ATOM     22  C   LIG    1      171.501 147.787 145.486  0.00  0.00    -0.028 A 
ATOM     23  C   LIG    1      170.941 148.730 144.616  0.00  0.00    +0.008 A 
ATOM     24  C   LIG    1      170.784 150.052 145.023  0.00  0.00    +0.038 A 
ATOM     25  C   LIG    1      171.188 150.410 146.302  0.00  0.00    +0.123 A 
ATOM     26  F   LIG    1      171.037 151.695 146.700  0.00  0.00    -0.205 F 
ATOM     27  C   LIG    1      171.739 149.493 147.186  0.00  0.00    +0.038 A 
ATOM     28  C   LIG    1      171.894 148.173 146.772  0.00  0.00    +0.008 A 
ENDBRANCH  21  22
ENDBRANCH  11  21
TORSDOF 3
ENDMDL
MODEL 4
REMARK VINA RESULT:      -8.4      4.783      8.036
REMARK  Name = ZINC000049420917
REMARK                            x       y       z     vdW  Elec       q    Type
REMARK                         _______ _______ _______ _____ _____    ______ ____
ROOT
ATOM      1  N   LIG    1      170.312 146.255 146.584  0.00  0.00    -0.205 N 
ATOM      2  C   LIG    1      170.541 145.618 145.340  0.00  0.00    +0.160 A 
ATOM      3  N   LIG    1      171.392 146.207 144.488  0.00  0.00    -0.238 NA
ATOM      4  C   LIG    1      171.624 145.641 143.305  0.00  0.00    +0.113 A 
ATOM      5  C   LIG    1      171.014 144.447 142.930  0.00  0.00    +0.022 A 
ATOM      6  C   LIG    1      170.135 143.820 143.806  0.00  0.00    +0.034 A 
ATOM      7  C   LIG    1      169.892 144.430 145.030  0.00  0.00    +0.149 A 
ATOM      8  S   LIG    1      168.874 143.780 146.313  0.00  0.00    +0.082 S 
ATOM      9  O   LIG    1      167.620 144.431 146.292  0.00  0.00    -0.150 OA
ATOM     10  O   LIG    1      168.861 142.365 146.223  0.00  0.00    -0.150 OA
ATOM     11  N   LIG    1      169.677 144.226 147.670  0.00  0.00    -0.150 N 
ATOM     12  C   LIG    1      169.843 145.575 147.719  0.00  0.00    +0.334 C 
ATOM     13  O   LIG    1      169.597 146.187 148.755  0.00  0.00    -0.250 OA
ENDROOT
BRANCH   1  18
ATOM     14  C   LIG    1      171.146 151.890 146.999  0.00  0.00    +0.044 C 
ATOM     15  C   LIG    1      170.922 150.396 146.898  0.00  0.00    -0.050 A 
ATOM     16  C   LIG    1      169.727 149.900 146.375  0.00  0.00    +0.005 A 
ATOM     17  C   LIG    1      169.519 148.529 146.268  0.00  0.00    +0.024 A 
ATOM     18  C   LIG    1      170.521 147.656 146.688  0.00  0.00    +0.044 A 
ATOM     19  C   LIG    1      171.723 148.135 147.209  0.00  0.00    +0.024 A 
ATOM     20  C   LIG    1      171.919 149.509 147.310  0.00  0.00    +0.005 A 
ENDBRANCH   1  18
BRANCH  11  21
ATOM     21  C   LIG    1      169.246 143.512 148.870  0.00  0.00    +0.171 C 
BRANCH  21  22
ATOM     22  C   LIG    1      170.498 142.787 149.323  0.00  0.00    -0.028 A 
ATOM     23  C   LIG    1      170.682 142.496 150.680  0.00  0.00    +0.008 A 
ATOM     24  C   LIG    1      171.827 141.825 151.103  0.00  0.00    +0.038 A 
ATOM     25  C   LIG    1      172.770 141.450 150.156  0.00  0.00    +0.123 A 
ATOM     26  F   LIG    1      173.884 140.798 150.563  0.00  0.00    -0.205 F 
ATOM     27  C   LIG    1      172.607 141.721 148.804  0.00  0.00    +0.038 A 
ATOM     28  C   LIG    1      171.461 142.394 148.389  0.00  0.00    +0.008 A 
ENDBRANCH  21  22
ENDBRANCH  11  21
TORSDOF 3
ENDMDL
MODEL 5
REMARK VINA RESULT:      -8.3     14.268     17.300
REMARK  Name = ZINC000049420917
REMARK                            x       y       z     vdW  Elec       q    Type
REMARK                         _______ _______ _______ _____ _____    ______ ____
ROOT
ATOM      1  N   LIG    1      161.141 160.022 158.105  0.00  0.00    -0.205 N 
ATOM      2  C   LIG    1      161.122 158.920 157.216  0.00  0.00    +0.160 A 
ATOM      3  N   LIG    1      160.162 158.000 157.387  0.00  0.00    -0.238 NA
ATOM      4  C   LIG    1      160.119 156.945 156.575  0.00  0.00    +0.113 A 
ATOM      5  C   LIG    1      161.040 156.775 155.544  0.00  0.00    +0.022 A 
ATOM      6  C   LIG    1      162.036 157.724 155.349  0.00  0.00    +0.034 A 
ATOM      7  C   LIG    1      162.077 158.811 156.213  0.00  0.00    +0.149 A 
ATOM      8  S   LIG    1      163.204 160.161 156.108  0.00  0.00    +0.082 S 
ATOM      9  O   LIG    1      164.234 159.988 157.060  0.00  0.00    -0.150 OA
ATOM     10  O   LIG    1      163.604 160.328 154.758  0.00  0.00    -0.150 OA
ATOM     11  N   LIG    1      162.279 161.438 156.557  0.00  0.00    -0.150 N 
ATOM     12  C   LIG    1      161.751 161.248 157.796  0.00  0.00    +0.334 C 
ATOM     13  O   LIG    1      161.798 162.148 158.628  0.00  0.00    -0.250 OA
ENDROOT
BRANCH   1  18
ATOM     14  C   LIG    1      158.776 159.447 163.273  0.00  0.00    +0.044 C 
ATOM     15  C   LIG    1      159.401 159.590 161.901  0.00  0.00    -0.050 A 
ATOM     16  C   LIG    1      158.671 160.155 160.854  0.00  0.00    +0.005 A 
ATOM     17  C   LIG    1      159.242 160.301 159.595  0.00  0.00    +0.024 A 
ATOM     18  C   LIG    1      160.555 159.878 159.392  0.00  0.00    +0.044 A 
ATOM     19  C   LIG    1      161.299 159.317 160.428  0.00  0.00    +0.024 A 
ATOM     20  C   LIG    1      160.717 159.177 161.683  0.00  0.00    +0.005 A 
ENDBRANCH   1  18
BRANCH  11  21
ATOM     21  C   LIG    1      162.861 162.734 156.216  0.00  0.00    +0.171 C 
BRANCH  21  22
ATOM     22  C   LIG    1      161.991 163.229 155.079  0.00  0.00    -0.028 A 
ATOM     23  C   LIG    1      160.610 163.364 155.264  0.00  0.00    +0.008 A 
ATOM     24  C   LIG    1      159.805 163.823 154.225  0.00  0.00    +0.038 A 
ATOM     25  C   LIG    1      160.399 164.147 153.013  0.00  0.00    +0.123 A 
ATOM     26  F   LIG    1      159.619 164.594 152.000  0.00  0.00    -0.205 F 
ATOM     27  C   LIG    1      161.767 164.030 152.806  0.00  0.00    +0.038 A 
ATOM     28  C   LIG    1      162.565 163.568 153.849  0.00  0.00    +0.008 A 
ENDBRANCH  21  22
ENDBRANCH  11  21
TORSDOF 3
ENDMDL
MODEL 6
REMARK VINA RESULT:      -8.3      4.493      6.470
REMARK  Name = ZINC000049420917
REMARK                            x       y       z     vdW  Elec       q    Type
REMARK                         _______ _______ _______ _____ _____    ______ ____
ROOT
ATOM      1  N   LIG    1      168.633 144.888 147.751  0.00  0.00    -0.205 N 
ATOM      2  C   LIG    1      168.213 144.201 146.585  0.00  0.00    +0.160 A 
ATOM      3  N   LIG    1      166.896 144.011 146.418  0.00  0.00    -0.238 NA
ATOM      4  C   LIG    1      166.465 143.360 145.338  0.00  0.00    +0.113 A 
ATOM      5  C   LIG    1      167.344 142.879 144.371  0.00  0.00    +0.022 A 
ATOM      6  C   LIG    1      168.712 143.076 144.528  0.00  0.00    +0.034 A 
ATOM      7  C   LIG    1      169.147 143.743 145.665  0.00  0.00    +0.149 A 
ATOM      8  S   LIG    1      170.819 144.160 146.031  0.00  0.00    +0.082 S 
ATOM      9  O   LIG    1      171.339 143.238 146.967  0.00  0.00    -0.150 OA
ATOM     10  O   LIG    1      171.536 144.310 144.817  0.00  0.00    -0.150 OA
ATOM     11  N   LIG    1      170.674 145.623 146.756  0.00  0.00    -0.150 N 
ATOM     12  C   LIG    1      169.867 145.550 147.848  0.00  0.00    +0.334 C 
ATOM     13  O   LIG    1      170.212 146.074 148.903  0.00  0.00    -0.250 OA
ENDROOT
BRANCH   1  18
ATOM     14  C   LIG    1      165.253 144.851 152.355  0.00  0.00    +0.044 C 
ATOM     15  C   LIG    1      166.143 144.855 151.130  0.00  0.00    -0.050 A 
ATOM     16  C   LIG    1      166.101 145.927 150.237  0.00  0.00    +0.005 A 
ATOM     17  C   LIG    1      166.924 145.944 149.116  0.00  0.00    +0.024 A 
ATOM     18  C   LIG    1      167.793 144.876 148.897  0.00  0.00    +0.044 A 
ATOM     19  C   LIG    1      167.851 143.800 149.781  0.00  0.00    +0.024 A 
ATOM     20  C   LIG    1      167.023 143.795 150.899  0.00  0.00    +0.005 A 
ENDBRANCH   1  18
BRANCH  11  21
ATOM     21  C   LIG    1      171.931 146.363 146.842  0.00  0.00    +0.171 C 
BRANCH  21  22
ATOM     22  C   LIG    1      171.583 147.725 146.275  0.00  0.00    -0.028 A 
ATOM     23  C   LIG    1      171.714 148.867 147.072  0.00  0.00    +0.008 A 
ATOM     24  C   LIG    1      171.401 150.123 146.556  0.00  0.00    +0.038 A 
ATOM     25  C   LIG    1      170.966 150.214 145.242  0.00  0.00    +0.123 A 
ATOM     26  F   LIG    1      170.660 151.433 144.737  0.00  0.00    -0.205 F 
ATOM     27  C   LIG    1      170.834 149.098 144.427  0.00  0.00    +0.038 A 
ATOM     28  C   LIG    1      171.147 147.846 144.951  0.00  0.00    +0.008 A 
ENDBRANCH  21  22
ENDBRANCH  11  21
TORSDOF 3
ENDMDL
MODEL 7
REMARK VINA RESULT:      -8.0     44.896     48.280
REMARK  Name = ZINC000049420917
REMARK                            x       y       z     vdW  Elec       q    Type
REMARK                         _______ _______ _______ _____ _____    ______ ____
ROOT
ATOM      1  N   LIG    1      162.798 107.890 172.744  0.00  0.00    -0.205 N 
ATOM      2  C   LIG    1      162.718 108.737 173.876  0.00  0.00    +0.160 A 
ATOM      3  N   LIG    1      163.680 108.626 174.804  0.00  0.00    -0.238 NA
ATOM      4  C   LIG    1      163.632 109.401 175.886  0.00  0.00    +0.113 A 
ATOM      5  C   LIG    1      162.615 110.332 176.078  0.00  0.00    +0.022 A 
ATOM      6  C   LIG    1      161.615 110.464 175.121  0.00  0.00    +0.034 A 
ATOM      7  C   LIG    1      161.670 109.640 174.005  0.00  0.00    +0.149 A 
ATOM      8  S   LIG    1      160.554 109.685 172.643  0.00  0.00    +0.082 S 
ATOM      9  O   LIG    1      159.619 108.633 172.767  0.00  0.00    -0.150 OA
ATOM     10  O   LIG    1      160.028 110.995 172.516  0.00  0.00    -0.150 OA
ATOM     11  N   LIG    1      161.532 109.371 171.365  0.00  0.00    -0.150 N 
ATOM     12  C   LIG    1      162.175 108.183 171.521  0.00  0.00    +0.334 C 
ATOM     13  O   LIG    1      162.219 107.382 170.592  0.00  0.00    -0.250 OA
ENDROOT
BRANCH   1  18
ATOM     14  C   LIG    1      165.624 102.946 173.188  0.00  0.00    +0.044 C 
ATOM     15  C   LIG    1      164.871 104.254 173.062  0.00  0.00    -0.050 A 
ATOM     16  C   LIG    1      163.650 104.425 173.715  0.00  0.00    +0.005 A 
ATOM     17  C   LIG    1      162.959 105.627 173.614  0.00  0.00    +0.024 A 
ATOM     18  C   LIG    1      163.503 106.661 172.853  0.00  0.00    +0.044 A 
ATOM     19  C   LIG    1      164.724 106.508 172.198  0.00  0.00    +0.024 A 
ATOM     20  C   LIG    1      165.406 105.300 172.307  0.00  0.00    +0.005 A 
ENDBRANCH   1  18
BRANCH  11  21
ATOM     21  C   LIG    1      160.935 109.700 170.073  0.00  0.00    +0.171 C 
BRANCH  21  22
ATOM     22  C   LIG    1      161.791 110.843 169.564  0.00  0.00    -0.028 A 
ATOM     23  C   LIG    1      161.277 112.144 169.543  0.00  0.00    +0.008 A 
ATOM     24  C   LIG    1      162.060 113.200 169.082  0.00  0.00    +0.038 A 
ATOM     25  C   LIG    1      163.353 112.934 168.653  0.00  0.00    +0.123 A 
ATOM     26  F   LIG    1      164.117 113.958 168.204  0.00  0.00    -0.205 F 
ATOM     27  C   LIG    1      163.889 111.654 168.670  0.00  0.00    +0.038 A 
ATOM     28  C   LIG    1      163.100 110.604 169.131  0.00  0.00    +0.008 A 
ENDBRANCH  21  22
ENDBRANCH  11  21
TORSDOF 3
ENDMDL
MODEL 8
REMARK VINA RESULT:      -8.0     64.131     68.442
REMARK  Name = ZINC000049420917
REMARK                            x       y       z     vdW  Elec       q    Type
REMARK                         _______ _______ _______ _____ _____    ______ ____
ROOT
ATOM      1  N   LIG    1      189.137  83.844 158.120  0.00  0.00    -0.205 N 
ATOM      2  C   LIG    1      187.746  83.751 158.371  0.00  0.00    +0.160 A 
ATOM      3  N   LIG    1      187.340  82.876 159.302  0.00  0.00    -0.238 NA
ATOM      4  C   LIG    1      186.038  82.755 159.558  0.00  0.00    +0.113 A 
ATOM      5  C   LIG    1      185.085  83.520 158.890  0.00  0.00    +0.022 A 
ATOM      6  C   LIG    1      185.492  84.437 157.927  0.00  0.00    +0.034 A 
ATOM      7  C   LIG    1      186.851  84.542 157.662  0.00  0.00    +0.149 A 
ATOM      8  S   LIG    1      187.590  85.679 156.538  0.00  0.00    +0.082 S 
ATOM      9  O   LIG    1      187.903  85.012 155.332  0.00  0.00    -0.150 OA
ATOM     10  O   LIG    1      186.769  86.830 156.435  0.00  0.00    -0.150 OA
ATOM     11  N   LIG    1      188.986  86.079 157.297  0.00  0.00    -0.150 N 
ATOM     12  C   LIG    1      189.740  84.975 157.549  0.00  0.00    +0.334 C 
ATOM     13  O   LIG    1      190.940  84.979 157.291  0.00  0.00    -0.250 OA
ENDROOT
BRANCH   1  18
ATOM     14  C   LIG    1      192.464  79.354 159.303  0.00  0.00    +0.044 C 
ATOM     15  C   LIG    1      191.590  80.549 158.986  0.00  0.00    -0.050 A 
ATOM     16  C   LIG    1      190.840  80.576 157.809  0.00  0.00    +0.005 A 
ATOM     17  C   LIG    1      190.026  81.665 157.517  0.00  0.00    +0.024 A 
ATOM     18  C   LIG    1      189.966  82.728 158.417  0.00  0.00    +0.044 A 
ATOM     19  C   LIG    1      190.703  82.714 159.599  0.00  0.00    +0.024 A 
ATOM     20  C   LIG    1      191.514  81.619 159.880  0.00  0.00    +0.005 A 
ENDBRANCH   1  18
BRANCH  11  21
ATOM     21  C   LIG    1      189.627  87.277 156.758  0.00  0.00    +0.171 C 
BRANCH  21  22
ATOM     22  C   LIG    1      189.262  88.357 157.757  0.00  0.00    -0.028 A 
ATOM     23  C   LIG    1      188.865  89.620 157.304  0.00  0.00    +0.008 A 
ATOM     24  C   LIG    1      188.523  90.616 158.216  0.00  0.00    +0.038 A 
ATOM     25  C   LIG    1      188.580  90.327 159.572  0.00  0.00    +0.123 A 
ATOM     26  F   LIG    1      188.249  91.293 160.462  0.00  0.00    -0.205 F 
ATOM     27  C   LIG    1      188.964  89.081 160.047  0.00  0.00    +0.038 A 
ATOM     28  C   LIG    1      189.306  88.091 159.130  0.00  0.00    +0.008 A 
ENDBRANCH  21  22
ENDBRANCH  11  21
TORSDOF 3
ENDMDL
MODEL 9
REMARK VINA RESULT:      -7.9     41.578     45.378
REMARK  Name = ZINC000049420917
REMARK                            x       y       z     vdW  Elec       q    Type
REMARK                         _______ _______ _______ _____ _____    ______ ____
ROOT
ATOM      1  N   LIG    1      199.476 114.582 143.808  0.00  0.00    -0.205 N 
ATOM      2  C   LIG    1      198.644 113.812 142.957  0.00  0.00    +0.160 A 
ATOM      3  N   LIG    1      198.501 112.510 143.241  0.00  0.00    -0.238 NA
ATOM      4  C   LIG    1      197.734 111.753 142.458  0.00  0.00    +0.113 A 
ATOM      5  C   LIG    1      197.068 112.280 141.353  0.00  0.00    +0.022 A 
ATOM      6  C   LIG    1      197.201 113.630 141.051  0.00  0.00    +0.034 A 
ATOM      7  C   LIG    1      198.015 114.403 141.869  0.00  0.00    +0.149 A 
ATOM      8  S   LIG    1      198.271 116.139 141.713  0.00  0.00    +0.082 S 
ATOM      9  O   LIG    1      199.512 116.376 141.080  0.00  0.00    -0.150 OA
ATOM     10  O   LIG    1      197.128 116.725 141.114  0.00  0.00    -0.150 OA
ATOM     11  N   LIG    1      198.372 116.629 143.273  0.00  0.00    -0.150 N 
ATOM     12  C   LIG    1      199.369 115.975 143.928  0.00  0.00    +0.334 C 
ATOM     13  O   LIG    1      200.158 116.603 144.629  0.00  0.00    -0.250 OA
ENDROOT
BRANCH   1  18
ATOM     14  C   LIG    1      203.578 111.948 146.785  0.00  0.00    +0.044 C 
ATOM     15  C   LIG    1      202.489 112.638 145.991  0.00  0.00    -0.050 A 
ATOM     16  C   LIG    1      201.206 112.765 146.525  0.00  0.00    +0.005 A 
ATOM     17  C   LIG    1      200.203 113.408 145.806  0.00  0.00    +0.024 A 
ATOM     18  C   LIG    1      200.498 113.927 144.546  0.00  0.00    +0.044 A 
ATOM     19  C   LIG    1      201.776 113.813 144.001  0.00  0.00    +0.024 A 
ATOM     20  C   LIG    1      202.770 113.168 144.729  0.00  0.00    +0.005 A 
ENDBRANCH   1  18
BRANCH  11  21
ATOM     21  C   LIG    1      198.227 118.073 143.447  0.00  0.00    +0.171 C 
BRANCH  21  22
ATOM     22  C   LIG    1      197.093 118.200 144.445  0.00  0.00    -0.028 A 
ATOM     23  C   LIG    1      197.375 118.443 145.794  0.00  0.00    +0.008 A 
ATOM     24  C   LIG    1      196.338 118.567 146.715  0.00  0.00    +0.038 A 
ATOM     25  C   LIG    1      195.029 118.451 146.267  0.00  0.00    +0.123 A 
ATOM     26  F   LIG    1      194.018 118.570 147.160  0.00  0.00    -0.205 F 
ATOM     27  C   LIG    1      194.723 118.218 144.933  0.00  0.00    +0.038 A 
ATOM     28  C   LIG    1      195.765 118.093 144.019  0.00  0.00    +0.008 A 
ENDBRANCH  21  22
ENDBRANCH  11  21
TORSDOF 3
ENDMDL
