REMARK VINA RESULT:      -7.0     11.450     12.679
REMARK  Name = 
REMARK                            x       y       z     vdW  Elec       q    Type
REMARK                         _______ _______ _______ _____ _____    ______ ____
ROOT
ATOM      1  O   LIG    1      177.719 149.598 155.406  0.00  0.00    -0.346 OA
ENDROOT
BRANCH   1   7
ATOM      2  C   LIG    1      174.138 147.444 159.330  0.00  0.00    +0.398 A 
ATOM      3  N   LIG    1      175.008 148.379 159.809  0.00  0.00    -0.128 NA
ATOM      4  C   LIG    1      175.897 148.706 158.880  0.00  0.00    +0.306 A 
ATOM      5  O   LIG    1      176.976 149.602 158.879  0.00  0.00    -0.445 OA
ATOM      6  C   LIG    1      177.794 149.663 157.726  0.00  0.00    +0.240 C 
ATOM      7  C   LIG    1      176.645 149.748 156.495  0.00  0.00    +0.182 C 
ATOM      8  C   LIG    1      176.389 148.084 156.554  0.00  0.00    +0.144 C 
ATOM      9  N   LIG    1      175.613 147.985 157.786  0.00  0.00    -0.272 N 
ATOM     10  C   LIG    1      174.545 147.213 158.046  0.00  0.00    +0.178 A 
BRANCH   2  12
ATOM     11  O   LIG    1      172.247 146.962 159.847  0.00  0.00    +0.043 OA
ATOM     12  N   LIG    1      173.043 146.850 160.042  0.00  0.00    +0.103 N 
ATOM     13  O   LIG    1      173.413 146.041 161.123  0.00  0.00    -0.575 OA
ENDBRANCH   2  12
ENDBRANCH   1   7
BRANCH   1  14
ATOM     14  C   LIG    1      177.804 150.893 154.893  0.00  0.00    +0.169 C 
BRANCH  14  15
ATOM     15  C   LIG    1      178.025 150.850 153.410  0.00  0.00    +0.007 A 
ATOM     16  C   LIG    1      178.462 149.695 152.789  0.00  0.00    +0.001 A 
ATOM     17  C   LIG    1      178.678 149.608 151.438  0.00  0.00    +0.037 A 
ATOM     18  C   LIG    1      178.447 150.734 150.648  0.00  0.00    +0.147 A 
ATOM     19  C   LIG    1      178.014 151.895 151.232  0.00  0.00    +0.037 A 
ATOM     20  C   LIG    1      177.806 151.946 152.601  0.00  0.00    +0.001 A 
BRANCH  18  21
ATOM     21  O   LIG    1      178.667 150.643 149.275  0.00  0.00    -0.404 OA
BRANCH  21  22
ATOM     22  C   LIG    1      179.930 151.076 148.764  0.00  0.00    +0.575 C 
ATOM     23  F   LIG    1      180.378 150.161 147.834  0.00  0.00    -0.133 F 
ATOM     24  F   LIG    1      180.866 151.132 149.792  0.00  0.00    -0.133 F 
ATOM     25  F   LIG    1      179.754 152.318 148.177  0.00  0.00    -0.133 F 
ENDBRANCH  21  22
ENDBRANCH  18  21
ENDBRANCH  14  15
ENDBRANCH   1  14
TORSDOF 6
