REMARK VINA RESULT:      -6.6     42.937     46.969
REMARK  Name = ZINC000193546412
REMARK                            x       y       z     vdW  Elec       q    Type
REMARK                         _______ _______ _______ _____ _____    ______ ____
ROOT
ATOM      1  C   LIG    1      170.469 143.483 146.798  0.00  0.00    +0.171 A 
ATOM      2  N   LIG    1      170.854 144.792 146.933  0.00  0.00    -0.204 NA
ATOM      3  C   LIG    1      170.545 145.419 145.852  0.00  0.00    +0.185 A 
ATOM      4  S   LIG    1      169.789 144.447 144.661  0.00  0.00    +0.050 S 
ATOM      5  N   LIG    1      169.899 143.150 145.666  0.00  0.00    -0.187 NA
ENDROOT
BRANCH   1   9
ATOM      6  C   LIG    1      171.104 140.624 149.916  0.00  0.00    +0.120 A 
ATOM      7  C   LIG    1      169.804 140.938 149.520  0.00  0.00    +0.046 A 
ATOM      8  C   LIG    1      169.604 141.867 148.505  0.00  0.00    +0.015 A 
ATOM      9  C   LIG    1      170.688 142.500 147.868  0.00  0.00    +0.020 A 
ATOM     10  C   LIG    1      171.987 142.161 148.291  0.00  0.00    +0.015 A 
ATOM     11  C   LIG    1      172.194 141.232 149.305  0.00  0.00    +0.046 A 
BRANCH   6  13
ATOM     12  C   LIG    1      172.351 139.889 151.960  0.00  0.00    +0.277 C 
ATOM     13  O   LIG    1      171.368 139.713 150.913  0.00  0.00    -0.495 OA
ENDBRANCH   6  13
ENDBRANCH   1   9
BRANCH   3  14
ATOM     14  N   LIG    1      170.847 146.779 145.758  0.00  0.00    -0.259 N 
ATOM     15  H   LIG    1      171.820 146.983 145.516  0.00  0.00    +0.157 HD
ATOM     16  C   LIG    1      170.018 147.854 145.944  0.00  0.00    +0.254 C 
ATOM     17  O   LIG    1      168.855 147.636 146.244  0.00  0.00    -0.270 OA
BRANCH  16  18
ATOM     18  C   LIG    1      170.542 149.204 145.788  0.00  0.00    +0.089 A 
ATOM     19  C   LIG    1      171.318 149.954 146.631  0.00  0.00    +0.182 A 
ATOM     20 BR   LIG    1      172.071 149.628 148.332  0.00  0.00    -0.008 Br
ATOM     21  O   LIG    1      171.564 151.157 146.074  0.00  0.00    -0.456 OA
ATOM     22  C   LIG    1      170.948 151.190 144.868  0.00  0.00    +0.197 A 
ATOM     23  C   LIG    1      170.316 150.017 144.659  0.00  0.00    +0.055 A 
ENDBRANCH  16  18
ENDBRANCH   3  14
TORSDOF 4
