REMARK VINA RESULT:      -7.6      1.779      2.230
REMARK  Name = 
REMARK                            x       y       z     vdW  Elec       q    Type
REMARK                         _______ _______ _______ _____ _____    ______ ____
ROOT
ATOM      1  C   LIG    1      169.054 151.404 145.904  0.00  0.00    +0.155 A 
ATOM      2  C   LIG    1      169.721 150.196 145.769  0.00  0.00    +0.054 A 
ATOM      3  C   LIG    1      170.988 150.012 146.282  0.00  0.00    +0.089 A 
ATOM      4  C   LIG    1      171.669 148.797 146.151  0.00  0.00    +0.059 A 
ATOM      5  C   LIG    1      171.065 147.749 145.489  0.00  0.00    +0.174 A 
ATOM      6  C   LIG    1      169.800 147.958 144.986  0.00  0.00    +0.173 A 
ATOM      7  N   LIG    1      171.576 151.034 146.927  0.00  0.00    -0.224 NA
ATOM      8  C   LIG    1      170.935 152.207 147.062  0.00  0.00    +0.200 A 
ATOM      9  C   LIG    1      169.127 149.139 145.109  0.00  0.00    +0.044 A 
ATOM     10  N   LIG    1      169.700 152.376 146.557  0.00  0.00    -0.207 NA
ENDROOT
BRANCH   1  11
ATOM     11  N   LIG    1      167.761 151.511 145.351  0.00  0.00    -0.194 NA
BRANCH  11  14
ATOM     12  C   LIG    1      165.522 151.216 148.308  0.00  0.00    +0.044 A 
ATOM     13  C   LIG    1      166.612 151.145 147.465  0.00  0.00    +0.025 A 
ATOM     14  C   LIG    1      166.596 151.617 146.169  0.00  0.00    +0.073 A 
ATOM     15  C   LIG    1      165.448 152.193 145.667  0.00  0.00    +0.017 A 
ATOM     16  C   LIG    1      164.344 152.275 146.489  0.00  0.00    +0.002 A 
ATOM     17  C   LIG    1      164.379 151.799 147.778  0.00  0.00    +0.008 A 
BRANCH  12  19
ATOM     18  C   LIG    1      165.603 150.290 150.800  0.00  0.00    -0.009 C 
ATOM     19  C   LIG    1      165.556 150.715 149.664  0.00  0.00    -0.051 C 
ENDBRANCH  12  19
ENDBRANCH  11  14
ENDBRANCH   1  11
BRANCH   6  20
ATOM     20  O   LIG    1      169.209 146.886 144.322  0.00  0.00    -0.470 OA
BRANCH  20  21
ATOM     21  C   LIG    1      167.857 146.542 144.425  0.00  0.00    +0.237 C 
BRANCH  21  22
ATOM     22  C   LIG    1      167.638 145.495 145.496  0.00  0.00    +0.189 C 
BRANCH  22  23
ATOM     23  O   LIG    1      167.242 144.287 144.888  0.00  0.00    -0.347 OA
ATOM     24  C   LIG    1      166.308 143.608 145.654  0.00  0.00    +0.174 C 
ENDBRANCH  22  23
ENDBRANCH  21  22
ENDBRANCH  20  21
ENDBRANCH   6  20
BRANCH   5  25
ATOM     25  O   LIG    1      171.713 146.508 145.333  0.00  0.00    -0.470 OA
BRANCH  25  26
ATOM     26  C   LIG    1      171.486 145.468 146.264  0.00  0.00    +0.237 C 
BRANCH  26  27
ATOM     27  C   LIG    1      171.255 144.198 145.461  0.00  0.00    +0.189 C 
BRANCH  27  28
ATOM     28  O   LIG    1      171.502 144.380 144.117  0.00  0.00    -0.347 OA
ATOM     29  C   LIG    1      170.418 143.957 143.354  0.00  0.00    +0.174 C 
ENDBRANCH  27  28
ENDBRANCH  26  27
ENDBRANCH  25  26
ENDBRANCH   5  25
TORSDOF 11
