REMARK VINA RESULT:      -7.5     38.839     42.051
REMARK  Name = 
REMARK                            x       y       z     vdW  Elec       q    Type
REMARK                         _______ _______ _______ _____ _____    ______ ____
ROOT
ATOM      1  C   LIG    1      198.912 118.304 146.993  0.00  0.00    +0.035 A 
ATOM      2  C   LIG    1      197.742 118.322 146.270  0.00  0.00    +0.007 A 
ATOM      3  C   LIG    1      196.661 119.081 146.708  0.00  0.00    +0.051 A 
ATOM      4  C   LIG    1      196.708 119.836 147.860  0.00  0.00    +0.086 A 
ATOM      5  N   LIG    1      195.664 120.579 148.297  0.00  0.00    -0.224 NA
ATOM      6  C   LIG    1      194.546 120.566 147.561  0.00  0.00    +0.200 A 
ATOM      7  N   LIG    1      194.472 119.836 146.426  0.00  0.00    -0.207 NA
ATOM      8  C   LIG    1      197.901 119.800 148.571  0.00  0.00    +0.019 A 
ATOM      9  C   LIG    1      195.477 119.097 145.972  0.00  0.00    +0.155 A 
ATOM     10  C   LIG    1      198.977 119.052 148.148  0.00  0.00    +0.005 A 
ENDROOT
BRANCH   1  13
ATOM     11  C   LIG    1      201.521 115.938 146.300  0.00  0.00    +0.140 A 
ATOM     12  O   LIG    1      200.490 116.384 146.961  0.00  0.00    -0.456 OA
ATOM     13  C   LIG    1      200.035 117.504 146.521  0.00  0.00    +0.145 A 
ATOM     14  C   LIG    1      200.836 117.868 145.442  0.00  0.00    +0.040 A 
ATOM     15  C   LIG    1      201.773 116.875 145.307  0.00  0.00    +0.038 A 
BRANCH  11  16
ATOM     16  C   LIG    1      202.307 114.679 146.525  0.00  0.00    +0.153 C 
BRANCH  16  17
ATOM     17  N   LIG    1      202.252 113.849 145.327  0.00  0.00    -0.208 NA
BRANCH  17  18
ATOM     18  C   LIG    1      202.635 112.504 145.697  0.00  0.00    +0.114 C 
BRANCH  18  19
ATOM     19  C   LIG    1      203.290 112.444 147.049  0.00  0.00    +0.170 C 
BRANCH  19  21
ATOM     20  C   LIG    1      205.463 111.794 145.263  0.00  0.00    +0.176 C 
ATOM     21  S   LIG    1      205.041 112.174 146.927  0.00  0.00    -0.007 S 
ATOM     22  O   LIG    1      205.368 110.965 147.771  0.00  0.00    -0.173 OA
ATOM     23  O   LIG    1      205.818 113.377 147.398  0.00  0.00    -0.173 OA
ENDBRANCH  19  21
ENDBRANCH  18  19
ENDBRANCH  17  18
ENDBRANCH  16  17
ENDBRANCH  11  16
ENDBRANCH   1  13
BRANCH   9  24
ATOM     24  N   LIG    1      195.445 118.322 144.800  0.00  0.00    -0.194 NA
BRANCH  24  25
ATOM     25  C   LIG    1      195.409 118.907 143.535  0.00  0.00    +0.073 A 
ATOM     26  C   LIG    1      196.504 119.584 142.990  0.00  0.00    +0.031 A 
ATOM     27  C   LIG    1      196.408 120.133 141.747  0.00  0.00    +0.093 A 
ATOM     28 CL   LIG    1      197.760 121.012 141.008  0.00  0.00    -0.079 Cl
ATOM     29  C   LIG    1      195.256 120.048 140.989  0.00  0.00    +0.150 A 
ATOM     30  C   LIG    1      194.171 119.382 141.516  0.00  0.00    +0.039 A 
ATOM     31  C   LIG    1      194.270 118.830 142.767  0.00  0.00    +0.020 A 
BRANCH  29  32
ATOM     32  O   LIG    1      195.199 120.628 139.709  0.00  0.00    -0.470 OA
BRANCH  32  33
ATOM     33  C   LIG    1      194.057 121.419 139.401  0.00  0.00    +0.232 C 
BRANCH  33  34
ATOM     34  C   LIG    1      194.481 122.837 139.461  0.00  0.00    +0.023 A 
ATOM     35  C   LIG    1      193.669 123.829 139.968  0.00  0.00    +0.029 A 
ATOM     36  C   LIG    1      194.131 125.149 139.998  0.00  0.00    +0.140 A 
ATOM     37  F   LIG    1      193.371 126.162 140.489  0.00  0.00    -0.204 F 
ATOM     38  C   LIG    1      195.384 125.461 139.526  0.00  0.00    +0.030 A 
ATOM     39  C   LIG    1      196.189 124.483 139.025  0.00  0.00    +0.002 A 
ATOM     40  C   LIG    1      195.729 123.178 138.996  0.00  0.00    -0.001 A 
ENDBRANCH  33  34
ENDBRANCH  32  33
ENDBRANCH  29  32
ENDBRANCH  24  25
ENDBRANCH   9  24
TORSDOF 11
