REMARK VINA RESULT:      -6.8     60.063     62.724
REMARK  Name = ZINC000006087320
REMARK                            x       y       z     vdW  Elec       q    Type
REMARK                         _______ _______ _______ _____ _____    ______ ____
ROOT
ATOM      1  C   LIG    1      200.315 112.673 146.159  0.00  0.00    +0.222 C 
ENDROOT
BRANCH   1   2
ATOM      2  N   LIG    1      199.781 113.376 144.969  0.00  0.00    -0.290 N 
ATOM      3  C   LIG    1      199.741 114.759 144.926  0.00  0.00    +0.262 A 
ATOM      4  O   LIG    1      200.151 115.370 145.917  0.00  0.00    -0.267 OA
ATOM      5  C   LIG    1      199.209 115.391 143.738  0.00  0.00    +0.068 A 
ATOM      6  C   LIG    1      199.159 116.786 143.600  0.00  0.00    +0.035 A 
ATOM      7  C   LIG    1      198.635 117.351 142.442  0.00  0.00    +0.043 A 
ATOM      8 CL   LIG    1      198.572 119.071 142.276  0.00  0.00    -0.083 Cl
ATOM      9  C   LIG    1      198.157 116.537 141.412  0.00  0.00    +0.042 A 
ATOM     10  C   LIG    1      198.205 115.155 141.545  0.00  0.00    +0.068 A 
ATOM     11 CL   LIG    1      197.601 114.174 140.244  0.00  0.00    -0.081 Cl
ATOM     12  C   LIG    1      198.732 114.563 142.714  0.00  0.00    +0.096 A 
ATOM     13  N   LIG    1      198.784 113.165 142.874  0.00  0.00    -0.235 NA
ATOM     14  C   LIG    1      199.267 112.624 143.927  0.00  0.00    +0.203 A 
ENDBRANCH   1   2
BRANCH   1  17
ATOM     15  N   LIG    1      202.600 113.349 146.787  0.00  0.00    -0.284 N 
ATOM     16  H   LIG    1      202.068 113.948 147.444  0.00  0.00    +0.155 HD
ATOM     17  C   LIG    1      201.820 112.552 145.985  0.00  0.00    +0.237 C 
ATOM     18  O   LIG    1      202.302 111.774 145.190  0.00  0.00    -0.274 OA
BRANCH  15  20
ATOM     19  C   LIG    1      204.572 114.615 146.182  0.00  0.00    -0.026 A 
ATOM     20  C   LIG    1      204.011 113.498 146.827  0.00  0.00    +0.037 A 
ATOM     21  C   LIG    1      204.824 112.584 147.506  0.00  0.00    +0.023 A 
ATOM     22  C   LIG    1      206.201 112.766 147.521  0.00  0.00    +0.002 A 
ATOM     23  C   LIG    1      206.768 113.857 146.871  0.00  0.00    +0.000 A 
ATOM     24  C   LIG    1      205.957 114.774 146.208  0.00  0.00    +0.005 A 
BRANCH  19  26
ATOM     25  C   LIG    1      203.675 115.205 143.976  0.00  0.00    +0.009 C 
ATOM     26  C   LIG    1      203.733 115.651 145.444  0.00  0.00    +0.033 C 
ENDBRANCH  19  26
ENDBRANCH  15  20
ENDBRANCH   1  17
TORSDOF 4
