REMARK VINA RESULT:      -9.1      0.000      0.000
REMARK  Name = ZINC000049410085
REMARK                            x       y       z     vdW  Elec       q    Type
REMARK                         _______ _______ _______ _____ _____    ______ ____
ROOT
ATOM      1  C   LIG    1      170.687 147.143 145.112  0.00  0.00    +0.247 C 
ATOM      2  N   LIG    1      170.588 148.330 145.832  0.00  0.00    -0.297 N 
ATOM      3  C   LIG    1      169.664 148.473 146.968  0.00  0.00    +0.112 C 
ATOM      4  C   LIG    1      168.404 149.125 146.374  0.00  0.00    +0.064 C 
ATOM      5  C   LIG    1      168.788 150.465 145.718  0.00  0.00    +0.102 C 
ATOM      6  N   LIG    1      167.622 151.003 145.078  0.00  0.00    -0.290 N 
ATOM      7  H   LIG    1      167.303 150.563 144.211  0.00  0.00    +0.151 HD
ATOM      8  C   LIG    1      166.693 151.725 145.745  0.00  0.00    +0.247 C 
ATOM      9  O   LIG    1      165.612 151.829 145.181  0.00  0.00    -0.270 OA
ATOM     10  C   LIG    1      167.026 152.288 147.036  0.00  0.00    +0.058 A 
ATOM     11  C   LIG    1      166.110 152.993 147.831  0.00  0.00    +0.016 A 
ATOM     12  C   LIG    1      166.496 153.510 149.061  0.00  0.00    +0.021 A 
ATOM     13  C   LIG    1      167.811 153.330 149.512  0.00  0.00    +0.043 A 
ATOM     14 CL   LIG    1      168.286 153.979 151.049  0.00  0.00    -0.083 Cl
ATOM     15  C   LIG    1      168.737 152.636 148.737  0.00  0.00    +0.043 A 
ATOM     16  C   LIG    1      168.337 152.115 147.509  0.00  0.00    +0.042 A 
ATOM     17  N   LIG    1      169.250 151.415 146.721  0.00  0.00    -0.323 N 
ATOM     18  H   LIG    1      170.121 151.133 147.185  0.00  0.00    +0.148 HD
ATOM     19  C   LIG    1      169.865 150.282 144.640  0.00  0.00    +0.064 C 
ATOM     20  C   LIG    1      171.092 149.594 145.262  0.00  0.00    +0.112 C 
ATOM     21  O   LIG    1      171.046 147.219 143.941  0.00  0.00    -0.270 OA
ENDROOT
BRANCH   1  25
ATOM     22  C   LIG    1      172.098 143.039 147.602  0.00  0.00    +0.044 C 
ATOM     23  C   LIG    1      171.023 143.862 146.926  0.00  0.00    -0.049 A 
ATOM     24  C   LIG    1      171.333 145.093 146.355  0.00  0.00    +0.016 A 
ATOM     25  C   LIG    1      170.343 145.862 145.733  0.00  0.00    +0.037 A 
ATOM     26  C   LIG    1      169.024 145.388 145.720  0.00  0.00    +0.016 A 
ATOM     27  C   LIG    1      168.705 144.159 146.289  0.00  0.00    -0.049 A 
ATOM     28  C   LIG    1      167.278 143.654 146.277  0.00  0.00    +0.044 C 
ATOM     29  C   LIG    1      169.708 143.402 146.892  0.00  0.00    +0.006 A 
ENDBRANCH   1  25
TORSDOF 1
