REMARK VINA RESULT:      -7.3      2.084      2.986
REMARK  Name = 
REMARK                            x       y       z     vdW  Elec       q    Type
REMARK                         _______ _______ _______ _____ _____    ______ ____
ROOT
ATOM      1  C   LIG    1      201.718  82.242 147.886  0.00  0.00    +0.032 C 
ATOM      2  C   LIG    1      202.075  83.420 148.733  0.00  0.00    -0.006 A 
ATOM      3  C   LIG    1      202.132  83.308 150.129  0.00  0.00    +0.071 A 
ATOM      4  C   LIG    1      202.462  84.389 150.927  0.00  0.00    +0.033 A 
ATOM      5  C   LIG    1      202.737  85.593 150.331  0.00  0.00    +0.075 A 
ATOM      6  C   LIG    1      202.683  85.716 148.938  0.00  0.00    +0.016 A 
ATOM      7  C   LIG    1      202.353  84.629 148.159  0.00  0.00    -0.002 A 
ENDROOT
BRANCH   5   8
ATOM      8  N   LIG    1      203.076  86.720 151.103  0.00  0.00    -0.175 NA
ATOM      9  C   LIG    1      204.353  87.309 151.174  0.00  0.00    +0.269 C 
ATOM     10  O   LIG    1      205.291  86.826 150.515  0.00  0.00    -0.268 OA
BRANCH   9  11
ATOM     11  C   LIG    1      204.565  88.488 152.024  0.00  0.00    +0.055 A 
ATOM     12  C   LIG    1      203.775  89.610 151.905  0.00  0.00    +0.004 A 
ATOM     13  C   LIG    1      203.974  90.734 152.713  0.00  0.00    -0.003 A 
ATOM     14  C   LIG    1      204.973  90.750 153.654  0.00  0.00    -0.006 A 
ATOM     15  C   LIG    1      205.766  89.635 153.779  0.00  0.00    -0.003 A 
ATOM     16  C   LIG    1      205.567  88.510 152.971  0.00  0.00    +0.004 A 
BRANCH  14  17
ATOM     17  C   LIG    1      205.180  91.937 154.504  0.00  0.00    +0.099 C 
BRANCH  17  18
ATOM     18  N   LIG    1      204.047  92.307 155.288  0.00  0.00    -0.267 NA
ATOM     19  C   LIG    1      203.839  91.466 156.451  0.00  0.00    +0.090 C 
ATOM     20  C   LIG    1      204.990  91.589 157.428  0.00  0.00    +0.090 C 
ATOM     21  N   LIG    1      205.501  92.956 157.449  0.00  0.00    -0.269 NA
ATOM     22  C   LIG    1      205.954  93.328 158.755  0.00  0.00    +0.090 C 
ATOM     23  C   LIG    1      204.445  93.895 157.058  0.00  0.00    +0.090 C 
ATOM     24  C   LIG    1      204.151  93.704 155.605  0.00  0.00    +0.090 C 
ENDBRANCH  17  18
ENDBRANCH  14  17
ENDBRANCH   9  11
ENDBRANCH   5   8
BRANCH   3  25
ATOM     25  N   LIG    1      201.839  82.053 150.652  0.00  0.00    -0.178 NA
BRANCH  25  26
ATOM     26  C   LIG    1      202.686  80.996 150.995  0.00  0.00    +0.241 A 
ATOM     27  N   LIG    1      202.518  80.439 152.223  0.00  0.00    -0.212 NA
ATOM     28  C   LIG    1      203.232  79.432 152.709  0.00  0.00    +0.087 A 
ATOM     29  C   LIG    1      204.240  78.896 151.900  0.00  0.00    +0.040 A 
ATOM     30  C   LIG    1      204.416  79.457 150.653  0.00  0.00    +0.103 A 
ATOM     31  N   LIG    1      203.644  80.477 150.244  0.00  0.00    -0.211 NA
BRANCH  28  32
ATOM     32  C   LIG    1      203.019  78.862 154.034  0.00  0.00    +0.037 A 
ATOM     33  C   LIG    1      203.037  79.681 155.140  0.00  0.00    +0.100 A 
ATOM     34  N   LIG    1      202.839  79.161 156.389  0.00  0.00    -0.242 NA
ATOM     35  C   LIG    1      202.624  77.867 156.578  0.00  0.00    +0.099 A 
ATOM     36  C   LIG    1      202.594  76.995 155.507  0.00  0.00    +0.021 A 
ATOM     37  C   LIG    1      202.796  77.519 154.229  0.00  0.00    +0.005 A 
ENDBRANCH  28  32
ENDBRANCH  25  26
ENDBRANCH   3  25
TORSDOF 7
