REMARK VINA RESULT:      -7.3     43.520     46.508
REMARK  Name = ZINC000186872603
REMARK                            x       y       z     vdW  Elec       q    Type
REMARK                         _______ _______ _______ _____ _____    ______ ____
ROOT
ATOM      1  N   LIG    1      203.626 114.901 145.475  0.00  0.00    -0.297 N 
ATOM      2  C   LIG    1      202.687 114.140 146.341  0.00  0.00    +0.123 C 
ATOM      3  C   LIG    1      201.261 114.278 145.750  0.00  0.00    +0.103 C 
ATOM      4  N   LIG    1      200.860 115.713 145.673  0.00  0.00    -0.299 NA
ATOM      5  C   LIG    1      201.818 116.444 144.784  0.00  0.00    +0.103 C 
ATOM      6  C   LIG    1      203.278 116.336 145.303  0.00  0.00    +0.123 C 
ENDROOT
BRANCH   1  10
ATOM      7  C   LIG    1      207.953 115.436 143.539  0.00  0.00    +0.066 C 
ATOM      8  C   LIG    1      207.047 114.781 144.554  0.00  0.00    +0.044 A 
ATOM      9  N   LIG    1      205.773 115.113 144.565  0.00  0.00    -0.220 NA
ATOM     10  C   LIG    1      204.967 114.541 145.467  0.00  0.00    +0.218 A 
ATOM     11  N   LIG    1      205.384 113.638 146.363  0.00  0.00    -0.219 NA
ATOM     12  C   LIG    1      206.659 113.286 146.378  0.00  0.00    +0.049 A 
ATOM     13  C   LIG    1      207.532 113.856 145.464  0.00  0.00    +0.046 A 
BRANCH  12  14
ATOM     14  C   LIG    1      207.151 112.261 147.395  0.00  0.00    +0.032 C 
ATOM     15  C   LIG    1      205.959 111.757 148.224  0.00  0.00    +0.014 C 
ATOM     16  C   LIG    1      208.207 112.915 148.301  0.00  0.00    +0.014 C 
ENDBRANCH  12  14
ENDBRANCH   1  10
BRANCH   4  17
ATOM     17  C   LIG    1      200.667 116.322 147.006  0.00  0.00    +0.085 C 
BRANCH  17  18
ATOM     18  C   LIG    1      199.249 116.919 146.964  0.00  0.00    +0.025 C 
BRANCH  18  19
ATOM     19  C   LIG    1      199.324 118.392 147.410  0.00  0.00    +0.097 C 
BRANCH  19  20
ATOM     20  C   LIG    1      197.927 118.976 147.389  0.00  0.00    +0.197 A 
ATOM     21  O   LIG    1      196.986 118.404 146.589  0.00  0.00    -0.440 OA
ATOM     22  C   LIG    1      195.881 119.126 146.796  0.00  0.00    +0.155 A 
ATOM     23  C   LIG    1      194.613 118.982 146.236  0.00  0.00    +0.048 A 
ATOM     24  C   LIG    1      193.628 119.881 146.632  0.00  0.00    +0.004 A 
ATOM     25  C   LIG    1      193.923 120.895 147.566  0.00  0.00    +0.002 A 
ATOM     26  C   LIG    1      195.202 121.012 148.108  0.00  0.00    +0.031 A 
ATOM     27  C   LIG    1      196.187 120.105 147.708  0.00  0.00    +0.110 A 
ATOM     28  N   LIG    1      197.508 119.978 148.069  0.00  0.00    -0.213 NA
ENDBRANCH  19  20
ENDBRANCH  18  19
ENDBRANCH  17  18
ENDBRANCH   4  17
TORSDOF 6
