REMARK VINA RESULT:      -7.5     15.698     17.269
REMARK  Name = ZINC000006083766
REMARK                            x       y       z     vdW  Elec       q    Type
REMARK                         _______ _______ _______ _____ _____    ______ ____
ROOT
ATOM      1  O   LIG    1      164.342 161.133 157.158  0.00  0.00    -0.468 OA
ENDROOT
BRANCH   1   2
ATOM      2  C   LIG    1      163.304 160.848 156.332  0.00  0.00    +0.227 A 
ATOM      3  C   LIG    1      163.008 161.708 155.260  0.00  0.00    +0.073 A 
ATOM      4  C   LIG    1      163.608 162.919 154.810  0.00  0.00    -0.023 A 
ATOM      5  C   LIG    1      164.806 163.588 155.468  0.00  0.00    +0.037 C 
ATOM      6  C   LIG    1      165.357 164.658 154.507  0.00  0.00    +0.005 C 
ATOM      7  C   LIG    1      164.235 165.535 153.925  0.00  0.00    +0.005 C 
ATOM      8  C   LIG    1      163.324 164.718 152.993  0.00  0.00    +0.043 C 
ATOM      9  C   LIG    1      162.962 163.445 153.729  0.00  0.00    -0.004 A 
ATOM     10  S   LIG    1      161.623 162.470 153.209  0.00  0.00    -0.073 S 
ATOM     11  C   LIG    1      161.922 161.339 154.482  0.00  0.00    +0.116 A 
ATOM     12  N   LIG    1      161.196 160.221 154.723  0.00  0.00    -0.228 NA
ATOM     13  C   LIG    1      161.554 159.481 155.744  0.00  0.00    +0.226 A 
ATOM     14  N   LIG    1      162.598 159.764 156.568  0.00  0.00    -0.201 NA
ENDBRANCH   1   2
BRANCH   1  15
ATOM     15  C   LIG    1      165.087 160.102 157.869  0.00  0.00    +0.310 C 
BRANCH  15  17
ATOM     16  O   LIG    1      164.039 161.075 159.761  0.00  0.00    -0.288 OA
ATOM     17  C   LIG    1      164.885 160.294 159.369  0.00  0.00    +0.200 C 
BRANCH  17  18
ATOM     18  C   LIG    1      165.667 159.509 160.325  0.00  0.00    +0.025 A 
ATOM     19  C   LIG    1      165.604 159.759 161.711  0.00  0.00    +0.061 A 
ATOM     20  C   LIG    1      166.360 158.993 162.586  0.00  0.00    +0.163 A 
ATOM     21  O   LIG    1      166.270 159.230 163.941  0.00  0.00    -0.485 OA
ATOM     22  C   LIG    1      166.773 158.203 164.851  0.00  0.00    +0.270 C 
ATOM     23  C   LIG    1      168.160 157.786 164.334  0.00  0.00    +0.270 C 
ATOM     24  O   LIG    1      167.971 157.259 162.986  0.00  0.00    -0.485 OA
ATOM     25  C   LIG    1      167.202 157.984 162.108  0.00  0.00    +0.162 A 
ATOM     26  C   LIG    1      167.271 157.716 160.747  0.00  0.00    +0.050 A 
ATOM     27  C   LIG    1      166.509 158.476 159.863  0.00  0.00    +0.015 A 
ENDBRANCH  17  18
ENDBRANCH  15  17
ENDBRANCH   1  15
TORSDOF 4
