MODEL 1
REMARK VINA RESULT:      -7.5      0.000      0.000
REMARK  Name = ZINC000000623204
REMARK                            x       y       z     vdW  Elec       q    Type
REMARK                         _______ _______ _______ _____ _____    ______ ____
ROOT
ATOM      1  C   LIG    1      170.022 147.355 145.402  0.00  0.00    +0.124 A 
ATOM      2  C   LIG    1      171.239 147.006 146.008  0.00  0.00    +0.067 A 
ATOM      3 CL   LIG    1      171.879 145.394 145.950  0.00  0.00    -0.082 Cl
ATOM      4  C   LIG    1      171.974 147.963 146.713  0.00  0.00    +0.023 A 
ATOM      5  C   LIG    1      171.506 149.264 146.827  0.00  0.00    +0.014 A 
ATOM      6  C   LIG    1      170.291 149.638 146.233  0.00  0.00    +0.039 A 
ATOM      7  C   LIG    1      169.564 148.668 145.529  0.00  0.00    +0.043 A 
ENDROOT
BRANCH   6   8
ATOM      8  C   LIG    1      169.769 151.001 146.341  0.00  0.00    +0.245 C 
ATOM      9  N   LIG    1      168.864 151.297 147.317  0.00  0.00    -0.305 N 
ATOM     10  H   LIG    1      168.556 150.568 147.968  0.00  0.00    +0.150 HD
ATOM     11  O   LIG    1      170.116 151.910 145.597  0.00  0.00    -0.270 OA
BRANCH   9  12
ATOM     12  C   LIG    1      168.239 152.597 147.457  0.00  0.00    +0.100 C 
ATOM     13  C   LIG    1      168.532 153.104 148.876  0.00  0.00    +0.033 C 
BRANCH  12  14
ATOM     14  C   LIG    1      166.742 152.367 147.299  0.00  0.00    -0.027 A 
ATOM     15  C   LIG    1      166.182 151.931 146.093  0.00  0.00    +0.005 A 
ATOM     16  C   LIG    1      164.807 151.742 145.981  0.00  0.00    +0.000 A 
ATOM     17  C   LIG    1      163.979 151.988 147.070  0.00  0.00    +0.000 A 
ATOM     18  C   LIG    1      164.526 152.422 148.272  0.00  0.00    +0.000 A 
ATOM     19  C   LIG    1      165.901 152.611 148.385  0.00  0.00    +0.005 A 
ENDBRANCH  12  14
ENDBRANCH   9  12
ENDBRANCH   6   8
BRANCH   1  20
ATOM     20  S   LIG    1      169.061 146.154 144.468  0.00  0.00    +0.062 S 
ATOM     21  O   LIG    1      167.933 146.818 143.911  0.00  0.00    -0.153 OA
ATOM     22  O   LIG    1      169.915 145.502 143.537  0.00  0.00    -0.153 OA
BRANCH  20  23
ATOM     23  N   LIG    1      168.530 145.048 145.592  0.00  0.00    -0.177 NA
BRANCH  23  25
ATOM     24  C   LIG    1      166.147 144.594 145.887  0.00  0.00    +0.022 C 
ATOM     25  C   LIG    1      167.373 145.319 146.461  0.00  0.00    +0.106 C 
ENDBRANCH  23  25
BRANCH  23  26
ATOM     26  C   LIG    1      168.742 143.625 145.315  0.00  0.00    +0.106 C 
ATOM     27  C   LIG    1      169.380 143.075 146.594  0.00  0.00    +0.022 C 
ENDBRANCH  23  26
ENDBRANCH  20  23
ENDBRANCH   1  20
TORSDOF 7
ENDMDL
MODEL 2
REMARK VINA RESULT:      -7.5      2.701      7.163
REMARK  Name = ZINC000000623204
REMARK                            x       y       z     vdW  Elec       q    Type
REMARK                         _______ _______ _______ _____ _____    ______ ____
ROOT
ATOM      1  C   LIG    1      169.508 150.066 146.739  0.00  0.00    +0.124 A 
ATOM      2  C   LIG    1      170.309 150.885 147.550  0.00  0.00    +0.067 A 
ATOM      3 CL   LIG    1      169.765 152.421 148.149  0.00  0.00    -0.082 Cl
ATOM      4  C   LIG    1      171.606 150.488 147.888  0.00  0.00    +0.023 A 
ATOM      5  C   LIG    1      172.118 149.287 147.418  0.00  0.00    +0.014 A 
ATOM      6  C   LIG    1      171.339 148.451 146.602  0.00  0.00    +0.039 A 
ATOM      7  C   LIG    1      170.039 148.862 146.273  0.00  0.00    +0.043 A 
ENDROOT
BRANCH   6   8
ATOM      8  C   LIG    1      171.852 147.182 146.088  0.00  0.00    +0.245 C 
ATOM      9  N   LIG    1      171.149 146.512 145.130  0.00  0.00    -0.305 N 
ATOM     10  H   LIG    1      170.269 146.900 144.777  0.00  0.00    +0.150 HD
ATOM     11  O   LIG    1      172.905 146.684 146.466  0.00  0.00    -0.270 OA
BRANCH   9  12
ATOM     12  C   LIG    1      171.540 145.217 144.612  0.00  0.00    +0.100 C 
ATOM     13  C   LIG    1      171.633 145.336 143.085  0.00  0.00    +0.033 C 
BRANCH  12  14
ATOM     14  C   LIG    1      170.417 144.256 144.980  0.00  0.00    -0.027 A 
ATOM     15  C   LIG    1      170.275 143.743 146.274  0.00  0.00    +0.005 A 
ATOM     16  C   LIG    1      169.242 142.857 146.572  0.00  0.00    +0.000 A 
ATOM     17  C   LIG    1      168.344 142.476 145.583  0.00  0.00    +0.000 A 
ATOM     18  C   LIG    1      168.479 142.980 144.294  0.00  0.00    +0.000 A 
ATOM     19  C   LIG    1      169.510 143.865 143.995  0.00  0.00    +0.005 A 
ENDBRANCH  12  14
ENDBRANCH   9  12
ENDBRANCH   6   8
BRANCH   1  20
ATOM     20  S   LIG    1      167.826 150.535 146.304  0.00  0.00    +0.062 S 
ATOM     21  O   LIG    1      167.835 151.890 145.873  0.00  0.00    -0.153 OA
ATOM     22  O   LIG    1      167.311 149.594 145.371  0.00  0.00    -0.153 OA
BRANCH  20  23
ATOM     23  N   LIG    1      166.961 150.430 147.722  0.00  0.00    -0.177 NA
BRANCH  23  25
ATOM     24  C   LIG    1      167.550 150.247 150.087  0.00  0.00    +0.022 C 
ATOM     25  C   LIG    1      167.320 149.472 148.781  0.00  0.00    +0.106 C 
ENDBRANCH  23  25
BRANCH  23  26
ATOM     26  C   LIG    1      166.295 151.637 148.216  0.00  0.00    +0.106 C 
ATOM     27  C   LIG    1      164.859 151.525 147.699  0.00  0.00    +0.022 C 
ENDBRANCH  23  26
ENDBRANCH  20  23
ENDBRANCH   1  20
TORSDOF 7
ENDMDL
MODEL 3
REMARK VINA RESULT:      -7.3      1.757      2.454
REMARK  Name = ZINC000000623204
REMARK                            x       y       z     vdW  Elec       q    Type
REMARK                         _______ _______ _______ _____ _____    ______ ____
ROOT
ATOM      1  C   LIG    1      169.400 148.279 145.896  0.00  0.00    +0.124 A 
ATOM      2  C   LIG    1      170.280 148.266 144.803  0.00  0.00    +0.067 A 
ATOM      3 CL   LIG    1      170.609 146.827 143.890  0.00  0.00    -0.082 Cl
ATOM      4  C   LIG    1      170.951 149.433 144.425  0.00  0.00    +0.023 A 
ATOM      5  C   LIG    1      170.760 150.612 145.130  0.00  0.00    +0.014 A 
ATOM      6  C   LIG    1      169.888 150.652 146.229  0.00  0.00    +0.039 A 
ATOM      7  C   LIG    1      169.222 149.474 146.596  0.00  0.00    +0.043 A 
ENDROOT
BRANCH   6   8
ATOM      8  C   LIG    1      169.671 151.879 146.995  0.00  0.00    +0.245 C 
ATOM      9  N   LIG    1      168.815 151.864 148.057  0.00  0.00    -0.305 N 
ATOM     10  H   LIG    1      168.332 150.998 148.312  0.00  0.00    +0.150 HD
ATOM     11  O   LIG    1      170.235 152.936 146.739  0.00  0.00    -0.270 OA
BRANCH   9  12
ATOM     12  C   LIG    1      168.483 153.044 148.830  0.00  0.00    +0.100 C 
ATOM     13  C   LIG    1      169.199 152.931 150.182  0.00  0.00    +0.033 C 
BRANCH  12  14
ATOM     14  C   LIG    1      166.976 152.998 149.046  0.00  0.00    -0.027 A 
ATOM     15  C   LIG    1      166.120 152.331 148.163  0.00  0.00    +0.005 A 
ATOM     16  C   LIG    1      164.746 152.319 148.387  0.00  0.00    +0.000 A 
ATOM     17  C   LIG    1      164.214 152.973 149.492  0.00  0.00    +0.000 A 
ATOM     18  C   LIG    1      165.057 153.639 150.375  0.00  0.00    +0.000 A 
ATOM     19  C   LIG    1      166.431 153.651 150.153  0.00  0.00    +0.005 A 
ENDBRANCH  12  14
ENDBRANCH   9  12
ENDBRANCH   6   8
BRANCH   1  20
ATOM     20  S   LIG    1      168.503 146.802 146.396  0.00  0.00    +0.062 S 
ATOM     21  O   LIG    1      167.750 147.108 147.563  0.00  0.00    -0.153 OA
ATOM     22  O   LIG    1      167.755 146.319 145.288  0.00  0.00    -0.153 OA
BRANCH  20  23
ATOM     23  N   LIG    1      169.675 145.690 146.793  0.00  0.00    -0.177 NA
BRANCH  23  25
ATOM     24  C   LIG    1      172.118 145.743 146.867  0.00  0.00    +0.022 C 
ATOM     25  C   LIG    1      170.826 146.044 147.641  0.00  0.00    +0.106 C 
ENDBRANCH  23  25
BRANCH  23  26
ATOM     26  C   LIG    1      169.290 144.280 146.877  0.00  0.00    +0.106 C 
ATOM     27  C   LIG    1      169.727 143.680 145.537  0.00  0.00    +0.022 C 
ENDBRANCH  23  26
ENDBRANCH  20  23
ENDBRANCH   1  20
TORSDOF 7
ENDMDL
MODEL 4
REMARK VINA RESULT:      -7.2      1.858      2.548
REMARK  Name = ZINC000000623204
REMARK                            x       y       z     vdW  Elec       q    Type
REMARK                         _______ _______ _______ _____ _____    ______ ____
ROOT
ATOM      1  C   LIG    1      169.099 146.180 145.124  0.00  0.00    +0.124 A 
ATOM      2  C   LIG    1      169.986 145.715 144.140  0.00  0.00    +0.067 A 
ATOM      3 CL   LIG    1      169.939 144.087 143.539  0.00  0.00    -0.082 Cl
ATOM      4  C   LIG    1      170.970 146.562 143.622  0.00  0.00    +0.023 A 
ATOM      5  C   LIG    1      171.086 147.866 144.080  0.00  0.00    +0.014 A 
ATOM      6  C   LIG    1      170.215 148.355 145.065  0.00  0.00    +0.039 A 
ATOM      7  C   LIG    1      169.232 147.494 145.575  0.00  0.00    +0.043 A 
ENDROOT
BRANCH   6   8
ATOM      8  C   LIG    1      170.315 149.724 145.572  0.00  0.00    +0.245 C 
ATOM      9  N   LIG    1      169.469 150.138 146.557  0.00  0.00    -0.305 N 
ATOM     10  H   LIG    1      168.770 149.493 146.937  0.00  0.00    +0.150 HD
ATOM     11  O   LIG    1      171.142 150.529 145.161  0.00  0.00    -0.270 OA
BRANCH   9  12
ATOM     12  C   LIG    1      169.446 151.493 147.071  0.00  0.00    +0.100 C 
ATOM     13  C   LIG    1      169.814 151.432 148.559  0.00  0.00    +0.033 C 
BRANCH  12  14
ATOM     14  C   LIG    1      168.010 151.979 146.922  0.00  0.00    -0.027 A 
ATOM     15  C   LIG    1      167.490 153.010 147.713  0.00  0.00    +0.005 A 
ATOM     16  C   LIG    1      166.169 153.421 147.557  0.00  0.00    +0.000 A 
ATOM     17  C   LIG    1      165.355 152.806 146.613  0.00  0.00    +0.000 A 
ATOM     18  C   LIG    1      165.862 151.780 145.824  0.00  0.00    +0.000 A 
ATOM     19  C   LIG    1      167.183 151.369 145.978  0.00  0.00    +0.005 A 
ENDBRANCH  12  14
ENDBRANCH   9  12
ENDBRANCH   6   8
BRANCH   1  20
ATOM     20  S   LIG    1      167.806 145.124 145.796  0.00  0.00    +0.062 S 
ATOM     21  O   LIG    1      167.016 145.898 146.690  0.00  0.00    -0.153 OA
ATOM     22  O   LIG    1      167.103 144.514 144.721  0.00  0.00    -0.153 OA
BRANCH  20  23
ATOM     23  N   LIG    1      168.605 143.951 146.664  0.00  0.00    -0.177 NA
BRANCH  23  25
ATOM     24  C   LIG    1      170.993 143.563 147.011  0.00  0.00    +0.022 C 
ATOM     25  C   LIG    1      169.741 144.274 147.544  0.00  0.00    +0.106 C 
ENDBRANCH  23  25
BRANCH  23  26
ATOM     26  C   LIG    1      167.851 142.767 147.082  0.00  0.00    +0.106 C 
ATOM     27  C   LIG    1      167.579 142.989 148.573  0.00  0.00    +0.022 C 
ENDBRANCH  23  26
ENDBRANCH  20  23
ENDBRANCH   1  20
TORSDOF 7
ENDMDL
MODEL 5
REMARK VINA RESULT:      -7.0      1.871      2.603
REMARK  Name = ZINC000000623204
REMARK                            x       y       z     vdW  Elec       q    Type
REMARK                         _______ _______ _______ _____ _____    ______ ____
ROOT
ATOM      1  C   LIG    1      169.891 145.872 145.592  0.00  0.00    +0.124 A 
ATOM      2  C   LIG    1      170.553 145.844 144.355  0.00  0.00    +0.067 A 
ATOM      3 CL   LIG    1      170.786 144.377 143.457  0.00  0.00    -0.082 Cl
ATOM      4  C   LIG    1      171.077 147.020 143.810  0.00  0.00    +0.023 A 
ATOM      5  C   LIG    1      170.955 148.224 144.489  0.00  0.00    +0.014 A 
ATOM      6  C   LIG    1      170.301 148.279 145.729  0.00  0.00    +0.039 A 
ATOM      7  C   LIG    1      169.780 147.092 146.264  0.00  0.00    +0.043 A 
ENDROOT
BRANCH   6   8
ATOM      8  C   LIG    1      170.162 149.532 146.471  0.00  0.00    +0.245 C 
ATOM      9  N   LIG    1      168.985 149.811 147.102  0.00  0.00    -0.305 N 
ATOM     10  H   LIG    1      168.209 149.144 147.055  0.00  0.00    +0.150 HD
ATOM     11  O   LIG    1      171.064 150.355 146.569  0.00  0.00    -0.270 OA
BRANCH   9  12
ATOM     12  C   LIG    1      168.730 151.055 147.800  0.00  0.00    +0.100 C 
ATOM     13  C   LIG    1      168.834 150.774 149.305  0.00  0.00    +0.033 C 
BRANCH  12  14
ATOM     14  C   LIG    1      167.300 151.448 147.454  0.00  0.00    -0.027 A 
ATOM     15  C   LIG    1      166.335 151.681 148.441  0.00  0.00    +0.005 A 
ATOM     16  C   LIG    1      165.034 152.028 148.088  0.00  0.00    +0.000 A 
ATOM     17  C   LIG    1      164.683 152.146 146.748  0.00  0.00    +0.000 A 
ATOM     18  C   LIG    1      165.635 151.916 145.760  0.00  0.00    +0.000 A 
ATOM     19  C   LIG    1      166.936 151.569 146.112  0.00  0.00    +0.005 A 
ENDBRANCH  12  14
ENDBRANCH   9  12
ENDBRANCH   6   8
BRANCH   1  20
ATOM     20  S   LIG    1      169.184 144.382 146.313  0.00  0.00    +0.062 S 
ATOM     21  O   LIG    1      170.177 143.364 146.300  0.00  0.00    -0.153 OA
ATOM     22  O   LIG    1      168.641 144.699 147.588  0.00  0.00    -0.153 OA
BRANCH  20  23
ATOM     23  N   LIG    1      167.952 143.940 145.286  0.00  0.00    -0.177 NA
BRANCH  23  25
ATOM     24  C   LIG    1      167.809 142.071 143.718  0.00  0.00    +0.022 C 
ATOM     25  C   LIG    1      167.519 142.539 145.151  0.00  0.00    +0.106 C 
ENDBRANCH  23  25
BRANCH  23  26
ATOM     26  C   LIG    1      166.894 144.916 145.017  0.00  0.00    +0.106 C 
ATOM     27  C   LIG    1      165.642 144.315 145.663  0.00  0.00    +0.022 C 
ENDBRANCH  23  26
ENDBRANCH  20  23
ENDBRANCH   1  20
TORSDOF 7
ENDMDL
MODEL 6
REMARK VINA RESULT:      -6.8      2.116      2.856
REMARK  Name = ZINC000000623204
REMARK                            x       y       z     vdW  Elec       q    Type
REMARK                         _______ _______ _______ _____ _____    ______ ____
ROOT
ATOM      1  C   LIG    1      168.681 147.562 146.381  0.00  0.00    +0.124 A 
ATOM      2  C   LIG    1      169.229 146.963 147.525  0.00  0.00    +0.067 A 
ATOM      3 CL   LIG    1      169.515 145.254 147.635  0.00  0.00    -0.082 Cl
ATOM      4  C   LIG    1      169.544 147.739 148.644  0.00  0.00    +0.023 A 
ATOM      5  C   LIG    1      169.311 149.107 148.638  0.00  0.00    +0.014 A 
ATOM      6  C   LIG    1      168.761 149.730 147.508  0.00  0.00    +0.039 A 
ATOM      7  C   LIG    1      168.450 148.939 146.393  0.00  0.00    +0.043 A 
ENDROOT
BRANCH   6   8
ATOM      8  C   LIG    1      168.500 151.169 147.474  0.00  0.00    +0.245 C 
ATOM      9  N   LIG    1      168.162 151.817 148.625  0.00  0.00    -0.305 N 
ATOM     10  H   LIG    1      168.094 151.296 149.504  0.00  0.00    +0.150 HD
ATOM     11  O   LIG    1      168.581 151.840 146.452  0.00  0.00    -0.270 OA
BRANCH   9  12
ATOM     12  C   LIG    1      167.816 153.224 148.677  0.00  0.00    +0.100 C 
ATOM     13  C   LIG    1      168.744 153.893 149.700  0.00  0.00    +0.033 C 
BRANCH  12  14
ATOM     14  C   LIG    1      166.379 153.289 149.175  0.00  0.00    -0.027 A 
ATOM     15  C   LIG    1      166.032 153.959 150.354  0.00  0.00    +0.005 A 
ATOM     16  C   LIG    1      164.709 153.988 150.786  0.00  0.00    +0.000 A 
ATOM     17  C   LIG    1      163.720 153.349 150.047  0.00  0.00    +0.000 A 
ATOM     18  C   LIG    1      164.055 152.680 148.875  0.00  0.00    +0.000 A 
ATOM     19  C   LIG    1      165.378 152.650 148.442  0.00  0.00    +0.005 A 
ENDBRANCH  12  14
ENDBRANCH   9  12
ENDBRANCH   6   8
BRANCH   1  20
ATOM     20  S   LIG    1      168.284 146.597 144.915  0.00  0.00    +0.062 S 
ATOM     21  O   LIG    1      167.581 145.430 145.322  0.00  0.00    -0.153 OA
ATOM     22  O   LIG    1      167.609 147.431 143.982  0.00  0.00    -0.153 OA
BRANCH  20  23
ATOM     23  N   LIG    1      169.753 146.142 144.279  0.00  0.00    -0.177 NA
BRANCH  23  25
ATOM     24  C   LIG    1      171.111 148.161 144.049  0.00  0.00    +0.022 C 
ATOM     25  C   LIG    1      171.013 146.775 144.704  0.00  0.00    +0.106 C 
ENDBRANCH  23  25
BRANCH  23  26
ATOM     26  C   LIG    1      169.910 144.759 143.824  0.00  0.00    +0.106 C 
ATOM     27  C   LIG    1      171.212 144.284 144.475  0.00  0.00    +0.022 C 
ENDBRANCH  23  26
ENDBRANCH  20  23
ENDBRANCH   1  20
TORSDOF 7
ENDMDL
MODEL 7
REMARK VINA RESULT:      -6.6      4.730      6.659
REMARK  Name = ZINC000000623204
REMARK                            x       y       z     vdW  Elec       q    Type
REMARK                         _______ _______ _______ _____ _____    ______ ____
ROOT
ATOM      1  C   LIG    1      167.066 144.050 150.109  0.00  0.00    +0.124 A 
ATOM      2  C   LIG    1      168.236 144.389 150.807  0.00  0.00    +0.067 A 
ATOM      3 CL   LIG    1      168.452 144.029 152.491  0.00  0.00    -0.082 Cl
ATOM      4  C   LIG    1      169.274 145.062 150.156  0.00  0.00    +0.023 A 
ATOM      5  C   LIG    1      169.155 145.410 148.818  0.00  0.00    +0.014 A 
ATOM      6  C   LIG    1      167.995 145.086 148.098  0.00  0.00    +0.039 A 
ATOM      7  C   LIG    1      166.963 144.410 148.764  0.00  0.00    +0.043 A 
ENDROOT
BRANCH   6   8
ATOM      8  C   LIG    1      167.839 145.444 146.688  0.00  0.00    +0.245 C 
ATOM      9  N   LIG    1      168.737 146.291 146.108  0.00  0.00    -0.305 N 
ATOM     10  H   LIG    1      169.512 146.671 146.659  0.00  0.00    +0.150 HD
ATOM     11  O   LIG    1      166.938 145.006 145.983  0.00  0.00    -0.270 OA
BRANCH   9  12
ATOM     12  C   LIG    1      168.624 146.757 144.741  0.00  0.00    +0.100 C 
ATOM     13  C   LIG    1      169.720 146.063 143.921  0.00  0.00    +0.033 C 
BRANCH  12  14
ATOM     14  C   LIG    1      168.893 148.256 144.781  0.00  0.00    -0.027 A 
ATOM     15  C   LIG    1      167.860 149.197 144.701  0.00  0.00    +0.005 A 
ATOM     16  C   LIG    1      168.143 150.560 144.729  0.00  0.00    +0.000 A 
ATOM     17  C   LIG    1      169.459 150.996 144.836  0.00  0.00    +0.000 A 
ATOM     18  C   LIG    1      170.492 150.068 144.915  0.00  0.00    +0.000 A 
ATOM     19  C   LIG    1      170.209 148.706 144.888  0.00  0.00    +0.005 A 
ENDBRANCH  12  14
ENDBRANCH   9  12
ENDBRANCH   6   8
BRANCH   1  20
ATOM     20  S   LIG    1      165.720 143.163 150.908  0.00  0.00    +0.062 S 
ATOM     21  O   LIG    1      164.945 142.522 149.902  0.00  0.00    -0.153 OA
ATOM     22  O   LIG    1      166.260 142.309 151.909  0.00  0.00    -0.153 OA
BRANCH  20  23
ATOM     23  N   LIG    1      164.791 144.337 151.633  0.00  0.00    -0.177 NA
BRANCH  23  25
ATOM     24  C   LIG    1      163.683 145.782 150.003  0.00  0.00    +0.022 C 
ATOM     25  C   LIG    1      163.475 144.726 151.098  0.00  0.00    +0.106 C 
ENDBRANCH  23  25
BRANCH  23  26
ATOM     26  C   LIG    1      164.920 144.526 153.080  0.00  0.00    +0.106 C 
ATOM     27  C   LIG    1      165.495 145.938 153.234  0.00  0.00    +0.022 C 
ENDBRANCH  23  26
ENDBRANCH  20  23
ENDBRANCH   1  20
TORSDOF 7
ENDMDL
MODEL 8
REMARK VINA RESULT:      -6.3     46.499     50.903
REMARK  Name = ZINC000000623204
REMARK                            x       y       z     vdW  Elec       q    Type
REMARK                         _______ _______ _______ _____ _____    ______ ____
ROOT
ATOM      1  C   LIG    1      202.297 114.200 145.097  0.00  0.00    +0.124 A 
ATOM      2  C   LIG    1      201.603 113.246 145.856  0.00  0.00    +0.067 A 
ATOM      3 CL   LIG    1      199.908 112.940 145.642  0.00  0.00    -0.082 Cl
ATOM      4  C   LIG    1      202.267 112.514 146.845  0.00  0.00    +0.023 A 
ATOM      5  C   LIG    1      203.615 112.729 147.092  0.00  0.00    +0.014 A 
ATOM      6  C   LIG    1      204.332 113.680 146.350  0.00  0.00    +0.039 A 
ATOM      7  C   LIG    1      203.653 114.406 145.361  0.00  0.00    +0.043 A 
ENDROOT
BRANCH   6   8
ATOM      8  C   LIG    1      205.752 113.933 146.591  0.00  0.00    +0.245 C 
ATOM      9  N   LIG    1      206.601 112.880 146.766  0.00  0.00    -0.305 N 
ATOM     10  H   LIG    1      206.241 111.921 146.728  0.00  0.00    +0.150 HD
ATOM     11  O   LIG    1      206.234 115.058 146.633  0.00  0.00    -0.270 OA
BRANCH   9  12
ATOM     12  C   LIG    1      208.007 113.032 147.080  0.00  0.00    +0.100 C 
ATOM     13  C   LIG    1      208.810 112.512 145.880  0.00  0.00    +0.033 C 
BRANCH  12  14
ATOM     14  C   LIG    1      208.270 112.146 148.290  0.00  0.00    -0.027 A 
ATOM     15  C   LIG    1      209.541 111.631 148.570  0.00  0.00    +0.005 A 
ATOM     16  C   LIG    1      209.742 110.814 149.680  0.00  0.00    +0.000 A 
ATOM     17  C   LIG    1      208.678 110.503 150.518  0.00  0.00    +0.000 A 
ATOM     18  C   LIG    1      207.412 111.009 150.247  0.00  0.00    +0.000 A 
ATOM     19  C   LIG    1      207.210 111.826 149.139  0.00  0.00    +0.005 A 
ENDBRANCH  12  14
ENDBRANCH   9  12
ENDBRANCH   6   8
BRANCH   1  20
ATOM     20  S   LIG    1      201.480 115.144 143.801  0.00  0.00    +0.062 S 
ATOM     21  O   LIG    1      200.948 114.231 142.850  0.00  0.00    -0.153 OA
ATOM     22  O   LIG    1      200.543 116.031 144.397  0.00  0.00    -0.153 OA
BRANCH  20  23
ATOM     23  N   LIG    1      202.688 116.029 143.076  0.00  0.00    -0.177 NA
BRANCH  23  25
ATOM     24  C   LIG    1      204.283 114.842 141.655  0.00  0.00    +0.022 C 
ATOM     25  C   LIG    1      203.084 115.801 141.676  0.00  0.00    +0.106 C 
ENDBRANCH  23  25
BRANCH  23  26
ATOM     26  C   LIG    1      202.912 117.401 143.538  0.00  0.00    +0.106 C 
ATOM     27  C   LIG    1      202.731 118.264 142.287  0.00  0.00    +0.022 C 
ENDBRANCH  23  26
ENDBRANCH  20  23
ENDBRANCH   1  20
TORSDOF 7
ENDMDL
MODEL 9
REMARK VINA RESULT:      -6.2     37.555     38.773
REMARK  Name = ZINC000000623204
REMARK                            x       y       z     vdW  Elec       q    Type
REMARK                         _______ _______ _______ _____ _____    ______ ____
ROOT
ATOM      1  C   LIG    1      156.428 139.683 179.049  0.00  0.00    +0.124 A 
ATOM      2  C   LIG    1      157.382 140.260 178.195  0.00  0.00    +0.067 A 
ATOM      3 CL   LIG    1      157.046 140.618 176.530  0.00  0.00    -0.082 Cl
ATOM      4  C   LIG    1      158.666 140.548 178.667  0.00  0.00    +0.023 A 
ATOM      5  C   LIG    1      159.014 140.259 179.979  0.00  0.00    +0.014 A 
ATOM      6  C   LIG    1      158.080 139.679 180.851  0.00  0.00    +0.039 A 
ATOM      7  C   LIG    1      156.796 139.397 180.365  0.00  0.00    +0.043 A 
ENDROOT
BRANCH   6   8
ATOM      8  C   LIG    1      158.419 139.359 182.238  0.00  0.00    +0.245 C 
ATOM      9  N   LIG    1      158.687 138.066 182.581  0.00  0.00    -0.305 N 
ATOM     10  H   LIG    1      158.651 137.330 181.870  0.00  0.00    +0.150 HD
ATOM     11  O   LIG    1      158.489 140.204 183.122  0.00  0.00    -0.270 OA
BRANCH   9  12
ATOM     12  C   LIG    1      158.962 137.643 183.939  0.00  0.00    +0.100 C 
ATOM     13  C   LIG    1      160.479 137.449 184.068  0.00  0.00    +0.033 C 
BRANCH  12  14
ATOM     14  C   LIG    1      158.262 136.302 184.115  0.00  0.00    -0.027 A 
ATOM     15  C   LIG    1      157.045 136.012 183.487  0.00  0.00    +0.005 A 
ATOM     16  C   LIG    1      156.428 134.779 183.679  0.00  0.00    +0.000 A 
ATOM     17  C   LIG    1      157.017 133.825 184.499  0.00  0.00    +0.000 A 
ATOM     18  C   LIG    1      158.226 134.104 185.129  0.00  0.00    +0.000 A 
ATOM     19  C   LIG    1      158.844 135.336 184.937  0.00  0.00    +0.005 A 
ENDBRANCH  12  14
ENDBRANCH   9  12
ENDBRANCH   6   8
BRANCH   1  20
ATOM     20  S   LIG    1      154.759 139.321 178.482  0.00  0.00    +0.062 S 
ATOM     21  O   LIG    1      154.184 140.523 177.984  0.00  0.00    -0.153 OA
ATOM     22  O   LIG    1      154.809 138.235 177.566  0.00  0.00    -0.153 OA
BRANCH  20  23
ATOM     23  N   LIG    1      153.926 138.852 179.843  0.00  0.00    -0.177 NA
BRANCH  23  25
ATOM     24  C   LIG    1      153.837 140.249 181.847  0.00  0.00    +0.022 C 
ATOM     25  C   LIG    1      153.076 139.790 180.595  0.00  0.00    +0.106 C 
ENDBRANCH  23  25
BRANCH  23  26
ATOM     26  C   LIG    1      153.499 137.455 179.945  0.00  0.00    +0.106 C 
ATOM     27  C   LIG    1      154.600 136.774 180.765  0.00  0.00    +0.022 C 
ENDBRANCH  23  26
ENDBRANCH  20  23
ENDBRANCH   1  20
TORSDOF 7
ENDMDL
