REMARK VINA RESULT:      -7.0      3.976      6.176
REMARK  Name = ZINC000049408611
REMARK                            x       y       z     vdW  Elec       q    Type
REMARK                         _______ _______ _______ _____ _____    ______ ____
ROOT
ATOM      1  N   LIG    1      165.884 144.578 147.564  0.00  0.00    -0.199 N 
ENDROOT
BRANCH   1   2
ATOM      2  C   LIG    1      167.135 144.740 148.186  0.00  0.00    +0.053 A 
ATOM      3  C   LIG    1      167.896 143.655 148.633  0.00  0.00    +0.044 A 
ATOM      4  C   LIG    1      169.133 143.892 149.224  0.00  0.00    +0.043 A 
ATOM      5 CL   LIG    1      170.089 142.559 149.779  0.00  0.00    -0.083 Cl
ATOM      6  C   LIG    1      169.614 145.196 149.368  0.00  0.00    +0.020 A 
ATOM      7  C   LIG    1      168.847 146.269 148.922  0.00  0.00    +0.003 A 
ATOM      8  C   LIG    1      167.607 146.046 148.334  0.00  0.00    +0.025 A 
ENDBRANCH   1   2
BRANCH   1  10
ATOM      9  O   LIG    1      164.823 144.190 145.327  0.00  0.00    -0.150 OA
ATOM     10  S   LIG    1      165.996 143.871 146.059  0.00  0.00    +0.076 S 
ATOM     11  O   LIG    1      166.286 142.491 146.223  0.00  0.00    -0.150 OA
BRANCH  10  12
ATOM     12  C   LIG    1      167.405 144.684 145.267  0.00  0.00    +0.125 A 
ATOM     13  C   LIG    1      168.575 144.002 145.049  0.00  0.00    +0.123 A 
ATOM     14  N   LIG    1      169.637 144.666 144.431  0.00  0.00    -0.287 N 
ATOM     15  C   LIG    1      170.847 144.221 144.103  0.00  0.00    +0.229 A 
ATOM     16  N   LIG    1      171.518 145.173 143.529  0.00  0.00    -0.137 NA
ATOM     17  N   LIG    1      170.721 146.281 143.482  0.00  0.00    -0.130 NA
ATOM     18  C   LIG    1      169.576 145.955 144.038  0.00  0.00    +0.161 A 
ATOM     19  C   LIG    1      168.374 146.683 144.276  0.00  0.00    +0.050 A 
ATOM     20  C   LIG    1      167.314 146.067 144.879  0.00  0.00    +0.034 A 
ENDBRANCH  10  12
ENDBRANCH   1  10
BRANCH   1  21
ATOM     21  C   LIG    1      164.893 143.801 148.321  0.00  0.00    +0.166 C 
BRANCH  21  22
ATOM     22  C   LIG    1      164.371 144.743 149.391  0.00  0.00    -0.028 A 
ATOM     23  C   LIG    1      164.610 144.489 150.743  0.00  0.00    +0.005 A 
ATOM     24  C   LIG    1      164.133 145.362 151.716  0.00  0.00    +0.000 A 
ATOM     25  C   LIG    1      163.415 146.494 151.345  0.00  0.00    +0.000 A 
ATOM     26  C   LIG    1      163.175 146.754 150.000  0.00  0.00    +0.000 A 
ATOM     27  C   LIG    1      163.653 145.882 149.026  0.00  0.00    +0.005 A 
ENDBRANCH  21  22
ENDBRANCH   1  21
TORSDOF 5
