REMARK VINA RESULT:      -7.0     36.370     38.181
REMARK  Name = ZINC000049483930
REMARK                            x       y       z     vdW  Elec       q    Type
REMARK                         _______ _______ _______ _____ _____    ______ ____
ROOT
ATOM      1  O   LIG    1      178.741 109.442 147.927  0.00  0.00    -0.275 OA
ATOM      2  C   LIG    1      179.898 109.159 147.690  0.00  0.00    +0.226 C 
ATOM      3  N   LIG    1      180.836 109.444 148.634  0.00  0.00    -0.299 N 
ATOM      4  C   LIG    1      182.271 109.170 148.723  0.00  0.00    +0.122 C 
ATOM      5  C   LIG    1      182.206 109.855 150.124  0.00  0.00    +0.112 C 
ATOM      6  C   LIG    1      180.661 110.004 149.974  0.00  0.00    +0.122 C 
ENDROOT
BRANCH   5   7
ATOM      7  C   LIG    1      182.898 111.200 150.133  0.00  0.00    +0.234 A 
ATOM      8  O   LIG    1      182.765 112.039 149.123  0.00  0.00    -0.337 OA
ATOM      9  N   LIG    1      183.462 113.120 149.397  0.00  0.00    -0.056 NA
ATOM     10  C   LIG    1      183.989 112.902 150.554  0.00  0.00    +0.209 A 
ATOM     11  N   LIG    1      183.643 111.682 151.039  0.00  0.00    -0.191 NA
BRANCH  10  12
ATOM     12  C   LIG    1      184.845 113.852 151.254  0.00  0.00    +0.060 A 
ATOM     13  S   LIG    1      184.326 114.655 152.707  0.00  0.00    -0.093 S 
ATOM     14  C   LIG    1      185.823 115.506 152.825  0.00  0.00    +0.046 A 
ATOM     15  C   LIG    1      186.670 115.186 151.803  0.00  0.00    +0.008 A 
ATOM     16  C   LIG    1      186.118 114.252 150.915  0.00  0.00    +0.019 A 
ENDBRANCH  10  12
ENDBRANCH   5   7
BRANCH   2  17
ATOM     17  C   LIG    1      180.317 108.482 146.402  0.00  0.00    +0.174 C 
BRANCH  17  18
ATOM     18  S   LIG    1      179.945 109.691 145.077  0.00  0.00    -0.058 S 
BRANCH  18  19
ATOM     19  C   LIG    1      181.202 110.855 145.334  0.00  0.00    +0.258 A 
ATOM     20  O   LIG    1      182.454 110.389 145.607  0.00  0.00    -0.431 OA
ATOM     21  C   LIG    1      183.192 111.498 145.750  0.00  0.00    +0.156 A 
ATOM     22  C   LIG    1      184.548 111.620 146.034  0.00  0.00    +0.048 A 
ATOM     23  C   LIG    1      185.077 112.904 146.130  0.00  0.00    +0.004 A 
ATOM     24  C   LIG    1      184.247 114.027 145.942  0.00  0.00    +0.002 A 
ATOM     25  C   LIG    1      182.893 113.871 145.658  0.00  0.00    +0.031 A 
ATOM     26  C   LIG    1      182.361 112.580 145.561  0.00  0.00    +0.110 A 
ATOM     27  N   LIG    1      181.089 112.147 145.298  0.00  0.00    -0.203 NA
ENDBRANCH  18  19
ENDBRANCH  17  18
ENDBRANCH   2  17
TORSDOF 5
