REMARK VINA RESULT:      -5.8     44.653     47.290
REMARK  Name = ZINC000049409419
REMARK                            x       y       z     vdW  Elec       q    Type
REMARK                         _______ _______ _______ _____ _____    ______ ____
ROOT
ATOM      1  N   LIG    1      198.837 112.672 143.452  0.00  0.00    -0.282 N 
ATOM      2  H   LIG    1      198.130 113.385 143.699  0.00  0.00    +0.155 HD
ATOM      3  C   LIG    1      198.421 111.694 142.584  0.00  0.00    +0.226 C 
ATOM      4  O   LIG    1      199.209 110.910 142.099  0.00  0.00    -0.275 OA
ENDROOT
BRANCH   1   9
ATOM      5  C   LIG    1      202.688 113.609 144.865  0.00  0.00    +0.142 A 
ATOM      6  C   LIG    1      201.903 112.707 145.605  0.00  0.00    +0.084 A 
ATOM      7 CL   LIG    1      202.500 111.996 147.068  0.00  0.00    -0.080 Cl
ATOM      8  C   LIG    1      200.621 112.376 145.164  0.00  0.00    +0.050 A 
ATOM      9  C   LIG    1      200.132 112.944 143.984  0.00  0.00    +0.077 A 
ATOM     10  C   LIG    1      200.917 113.853 143.257  0.00  0.00    +0.145 A 
ATOM     11  C   LIG    1      202.199 114.187 143.692  0.00  0.00    +0.094 A 
BRANCH   5  13
ATOM     12  C   LIG    1      204.627 115.193 145.219  0.00  0.00    +0.277 C 
ATOM     13  O   LIG    1      203.962 113.915 145.334  0.00  0.00    -0.494 OA
ENDBRANCH   5  13
BRANCH  10  14
ATOM     14  O   LIG    1      200.372 114.413 142.099  0.00  0.00    -0.493 OA
ATOM     15  C   LIG    1      201.131 114.958 140.995  0.00  0.00    +0.277 C 
ENDBRANCH  10  14
ENDBRANCH   1   9
BRANCH   3  16
ATOM     16  C   LIG    1      196.955 111.651 142.242  0.00  0.00    +0.193 C 
BRANCH  16  17
ATOM     17  C   LIG    1      196.796 112.634 141.115  0.00  0.00    +0.226 A 
ATOM     18  O   LIG    1      197.615 113.638 140.983  0.00  0.00    -0.419 OA
ATOM     19  C   LIG    1      197.198 114.301 139.925  0.00  0.00    +0.255 A 
ATOM     20  N   LIG    1      196.152 113.722 139.423  0.00  0.00    -0.107 NA
ATOM     21  N   LIG    1      195.895 112.634 140.208  0.00  0.00    -0.112 NA
BRANCH  19  22
ATOM     22  C   LIG    1      197.898 115.497 139.482  0.00  0.00    +0.079 A 
ATOM     23  C   LIG    1      198.038 116.715 140.124  0.00  0.00    -0.031 A 
ATOM     24  C   LIG    1      197.453 117.041 141.484  0.00  0.00    +0.045 C 
ATOM     25  C   LIG    1      198.786 117.641 139.382  0.00  0.00    +0.012 A 
ATOM     26  C   LIG    1      199.219 117.146 138.185  0.00  0.00    +0.046 A 
ATOM     27  S   LIG    1      198.710 115.519 137.946  0.00  0.00    -0.092 S 
ENDBRANCH  19  22
ENDBRANCH  16  17
ENDBRANCH   3  16
TORSDOF 6
