MODEL 1
REMARK VINA RESULT:      -7.7      0.000      0.000
REMARK  Name = ZINC000009075134
REMARK                            x       y       z     vdW  Elec       q    Type
REMARK                         _______ _______ _______ _____ _____    ______ ____
ROOT
ATOM      1  C   LIG    1      170.404 151.564 147.341  0.00  0.00    +0.061 A 
ATOM      2  C   LIG    1      170.139 152.585 148.271  0.00  0.00    +0.039 A 
ATOM      3  C   LIG    1      168.866 153.126 148.375  0.00  0.00    +0.048 A 
ATOM      4  N   LIG    1      168.659 154.191 149.289  0.00  0.00    -0.284 N 
ATOM      5  H   LIG    1      169.457 154.749 149.620  0.00  0.00    +0.155 HD
ATOM      6  C   LIG    1      167.448 154.630 149.717  0.00  0.00    +0.227 C 
ATOM      7  C   LIG    1      166.182 153.839 149.445  0.00  0.00    +0.170 C 
ATOM      8  S   LIG    1      166.202 153.325 147.687  0.00  0.00    -0.114 S 
ATOM      9  O   LIG    1      167.452 155.659 150.357  0.00  0.00    -0.275 OA
ATOM     10  C   LIG    1      167.811 152.664 147.562  0.00  0.00    +0.030 A 
ATOM     11  C   LIG    1      168.076 151.660 146.627  0.00  0.00    +0.017 A 
ATOM     12  C   LIG    1      169.351 151.115 146.521  0.00  0.00    +0.016 A 
ENDROOT
BRANCH   1  14
ATOM     13  O   LIG    1      172.617 151.425 146.502  0.00  0.00    -0.245 OA
ATOM     14  C   LIG    1      171.743 150.992 147.240  0.00  0.00    +0.340 C 
BRANCH  14  15
ATOM     15  O   LIG    1      172.035 149.909 147.999  0.00  0.00    -0.456 OA
BRANCH  15  16
ATOM     16  C   LIG    1      171.044 148.907 148.352  0.00  0.00    +0.268 C 
BRANCH  16  17
ATOM     17  C   LIG    1      171.101 147.889 147.228  0.00  0.00    -0.010 A 
ATOM     18  C   LIG    1      169.953 147.584 146.497  0.00  0.00    +0.008 A 
ATOM     19  C   LIG    1      170.005 146.652 145.464  0.00  0.00    +0.015 A 
ATOM     20  C   LIG    1      171.207 146.020 145.153  0.00  0.00    +0.018 A 
ATOM     21 BR   LIG    1      171.277 144.751 143.750  0.00  0.00    -0.050 Br
ATOM     22  C   LIG    1      172.356 146.326 145.876  0.00  0.00    +0.015 A 
ATOM     23  C   LIG    1      172.304 147.259 146.908  0.00  0.00    +0.008 A 
ENDBRANCH  16  17
ENDBRANCH  15  16
ENDBRANCH  14  15
ENDBRANCH   1  14
TORSDOF 4
ENDMDL
MODEL 2
REMARK VINA RESULT:      -7.4      4.099      6.153
REMARK  Name = ZINC000009075134
REMARK                            x       y       z     vdW  Elec       q    Type
REMARK                         _______ _______ _______ _____ _____    ______ ____
ROOT
ATOM      1  C   LIG    1      171.181 146.515 144.734  0.00  0.00    +0.061 A 
ATOM      2  C   LIG    1      170.815 147.848 144.475  0.00  0.00    +0.039 A 
ATOM      3  C   LIG    1      171.060 148.838 145.416  0.00  0.00    +0.048 A 
ATOM      4  N   LIG    1      170.624 150.158 145.134  0.00  0.00    -0.284 N 
ATOM      5  H   LIG    1      169.890 150.320 144.431  0.00  0.00    +0.155 HD
ATOM      6  C   LIG    1      171.027 151.273 145.795  0.00  0.00    +0.227 C 
ATOM      7  C   LIG    1      172.201 151.238 146.755  0.00  0.00    +0.170 C 
ATOM      8  S   LIG    1      172.006 149.769 147.834  0.00  0.00    -0.114 S 
ATOM      9  O   LIG    1      170.422 152.290 145.538  0.00  0.00    -0.275 OA
ATOM     10  C   LIG    1      171.682 148.536 146.644  0.00  0.00    +0.030 A 
ATOM     11  C   LIG    1      172.033 147.210 146.909  0.00  0.00    +0.017 A 
ATOM     12  C   LIG    1      171.791 146.215 145.968  0.00  0.00    +0.016 A 
ENDROOT
BRANCH   1  14
ATOM     13  O   LIG    1      171.793 145.008 143.009  0.00  0.00    -0.245 OA
ATOM     14  C   LIG    1      170.930 145.477 143.739  0.00  0.00    +0.340 C 
BRANCH  14  15
ATOM     15  O   LIG    1      169.666 145.010 143.606  0.00  0.00    -0.456 OA
BRANCH  15  16
ATOM     16  C   LIG    1      169.253 143.712 144.108  0.00  0.00    +0.268 C 
BRANCH  16  17
ATOM     17  C   LIG    1      168.184 144.015 145.142  0.00  0.00    -0.010 A 
ATOM     18  C   LIG    1      166.835 143.839 144.831  0.00  0.00    +0.008 A 
ATOM     19  C   LIG    1      165.855 144.114 145.780  0.00  0.00    +0.015 A 
ATOM     20  C   LIG    1      166.215 144.565 147.047  0.00  0.00    +0.018 A 
ATOM     21 BR   LIG    1      164.881 144.941 148.336  0.00  0.00    -0.050 Br
ATOM     22  C   LIG    1      167.560 144.736 147.363  0.00  0.00    +0.015 A 
ATOM     23  C   LIG    1      168.541 144.459 146.415  0.00  0.00    +0.008 A 
ENDBRANCH  16  17
ENDBRANCH  15  16
ENDBRANCH  14  15
ENDBRANCH   1  14
TORSDOF 4
ENDMDL
MODEL 3
REMARK VINA RESULT:      -7.0     53.507     55.463
REMARK  Name = ZINC000009075134
REMARK                            x       y       z     vdW  Elec       q    Type
REMARK                         _______ _______ _______ _____ _____    ______ ____
ROOT
ATOM      1  C   LIG    1      165.141 102.897 174.679  0.00  0.00    +0.061 A 
ATOM      2  C   LIG    1      165.705 103.025 173.397  0.00  0.00    +0.039 A 
ATOM      3  C   LIG    1      165.078 103.798 172.430  0.00  0.00    +0.048 A 
ATOM      4  N   LIG    1      165.654 103.854 171.135  0.00  0.00    -0.284 N 
ATOM      5  H   LIG    1      166.308 103.121 170.828  0.00  0.00    +0.155 HD
ATOM      6  C   LIG    1      165.343 104.767 170.179  0.00  0.00    +0.227 C 
ATOM      7  C   LIG    1      164.512 105.994 170.503  0.00  0.00    +0.170 C 
ATOM      8  S   LIG    1      163.077 105.458 171.507  0.00  0.00    -0.114 S 
ATOM      9  O   LIG    1      165.802 104.559 169.077  0.00  0.00    -0.275 OA
ATOM     10  C   LIG    1      163.873 104.474 172.708  0.00  0.00    +0.030 A 
ATOM     11  C   LIG    1      163.304 104.336 173.977  0.00  0.00    +0.017 A 
ATOM     12  C   LIG    1      163.930 103.563 174.948  0.00  0.00    +0.016 A 
ENDROOT
BRANCH   1  14
ATOM     13  O   LIG    1      166.703 102.505 176.419  0.00  0.00    -0.245 OA
ATOM     14  C   LIG    1      165.807 102.090 175.696  0.00  0.00    +0.340 C 
BRANCH  14  15
ATOM     15  O   LIG    1      165.420 100.801 175.845  0.00  0.00    -0.456 OA
BRANCH  15  16
ATOM     16  C   LIG    1      164.240 100.419 176.602  0.00  0.00    +0.268 C 
BRANCH  16  17
ATOM     17  C   LIG    1      163.221 100.009 175.555  0.00  0.00    -0.010 A 
ATOM     18  C   LIG    1      163.588  99.157 174.512  0.00  0.00    +0.008 A 
ATOM     19  C   LIG    1      162.653  98.779 173.553  0.00  0.00    +0.015 A 
ATOM     20  C   LIG    1      161.344  99.247 173.629  0.00  0.00    +0.018 A 
ATOM     21 BR   LIG    1      160.074  98.733 172.324  0.00  0.00    -0.050 Br
ATOM     22  C   LIG    1      160.972 100.092 174.671  0.00  0.00    +0.015 A 
ATOM     23  C   LIG    1      161.907 100.470 175.632  0.00  0.00    +0.008 A 
ENDBRANCH  16  17
ENDBRANCH  15  16
ENDBRANCH  14  15
ENDBRANCH   1  14
TORSDOF 4
ENDMDL
MODEL 4
REMARK VINA RESULT:      -6.9     51.247     53.238
REMARK  Name = ZINC000009075134
REMARK                            x       y       z     vdW  Elec       q    Type
REMARK                         _______ _______ _______ _____ _____    ______ ____
ROOT
ATOM      1  C   LIG    1      164.541 104.245 172.626  0.00  0.00    +0.061 A 
ATOM      2  C   LIG    1      165.336 103.658 173.626  0.00  0.00    +0.039 A 
ATOM      3  C   LIG    1      164.745 103.026 174.711  0.00  0.00    +0.048 A 
ATOM      4  N   LIG    1      165.587 102.495 175.722  0.00  0.00    -0.284 N 
ATOM      5  H   LIG    1      166.553 102.834 175.819  0.00  0.00    +0.155 HD
ATOM      6  C   LIG    1      165.199 101.615 176.680  0.00  0.00    +0.227 C 
ATOM      7  C   LIG    1      163.860 100.906 176.603  0.00  0.00    +0.170 C 
ATOM      8  S   LIG    1      162.583 102.152 176.184  0.00  0.00    -0.114 S 
ATOM      9  O   LIG    1      166.001 101.406 177.564  0.00  0.00    -0.275 OA
ATOM     10  C   LIG    1      163.343 102.952 174.833  0.00  0.00    +0.030 A 
ATOM     11  C   LIG    1      162.551 103.547 173.848  0.00  0.00    +0.017 A 
ATOM     12  C   LIG    1      163.141 104.180 172.759  0.00  0.00    +0.016 A 
ENDROOT
BRANCH   1  14
ATOM     13  O   LIG    1      165.468 104.327 170.445  0.00  0.00    -0.245 OA
ATOM     14  C   LIG    1      165.166 104.902 171.482  0.00  0.00    +0.340 C 
BRANCH  14  15
ATOM     15  O   LIG    1      165.438 106.226 171.574  0.00  0.00    -0.456 OA
BRANCH  15  16
ATOM     16  C   LIG    1      164.684 107.234 170.850  0.00  0.00    +0.268 C 
BRANCH  16  17
ATOM     17  C   LIG    1      163.761 107.849 171.886  0.00  0.00    -0.010 A 
ATOM     18  C   LIG    1      162.540 108.403 171.500  0.00  0.00    +0.008 A 
ATOM     19  C   LIG    1      161.692 108.965 172.450  0.00  0.00    +0.015 A 
ATOM     20  C   LIG    1      162.057 108.975 173.794  0.00  0.00    +0.018 A 
ATOM     21 BR   LIG    1      160.904 109.741 175.085  0.00  0.00    -0.050 Br
ATOM     22  C   LIG    1      163.271 108.418 174.184  0.00  0.00    +0.015 A 
ATOM     23  C   LIG    1      164.119 107.854 173.234  0.00  0.00    +0.008 A 
ENDBRANCH  16  17
ENDBRANCH  15  16
ENDBRANCH  14  15
ENDBRANCH   1  14
TORSDOF 4
ENDMDL
MODEL 5
REMARK VINA RESULT:      -6.8      2.178      2.902
REMARK  Name = ZINC000009075134
REMARK                            x       y       z     vdW  Elec       q    Type
REMARK                         _______ _______ _______ _____ _____    ______ ____
ROOT
ATOM      1  C   LIG    1      168.649 152.459 148.006  0.00  0.00    +0.061 A 
ATOM      2  C   LIG    1      167.268 152.502 148.264  0.00  0.00    +0.039 A 
ATOM      3  C   LIG    1      166.777 153.225 149.342  0.00  0.00    +0.048 A 
ATOM      4  N   LIG    1      165.382 153.194 149.595  0.00  0.00    -0.284 N 
ATOM      5  H   LIG    1      164.805 152.433 149.212  0.00  0.00    +0.155 HD
ATOM      6  C   LIG    1      164.715 154.052 150.408  0.00  0.00    +0.227 C 
ATOM      7  C   LIG    1      165.378 155.311 150.937  0.00  0.00    +0.170 C 
ATOM      8  S   LIG    1      167.045 154.859 151.548  0.00  0.00    -0.114 S 
ATOM      9  O   LIG    1      163.561 153.771 150.644  0.00  0.00    -0.275 OA
ATOM     10  C   LIG    1      167.645 153.936 150.195  0.00  0.00    +0.030 A 
ATOM     11  C   LIG    1      169.019 153.884 149.949  0.00  0.00    +0.017 A 
ATOM     12  C   LIG    1      169.514 153.160 148.869  0.00  0.00    +0.016 A 
ENDROOT
BRANCH   1  14
ATOM     13  O   LIG    1      168.587 151.619 145.790  0.00  0.00    -0.245 OA
ATOM     14  C   LIG    1      169.162 151.704 146.868  0.00  0.00    +0.340 C 
BRANCH  14  15
ATOM     15  O   LIG    1      170.339 151.049 147.011  0.00  0.00    -0.456 OA
BRANCH  15  16
ATOM     16  C   LIG    1      171.249 150.821 145.903  0.00  0.00    +0.268 C 
BRANCH  16  17
ATOM     17  C   LIG    1      171.323 149.312 145.763  0.00  0.00    -0.010 A 
ATOM     18  C   LIG    1      171.824 148.532 146.805  0.00  0.00    +0.008 A 
ATOM     19  C   LIG    1      171.889 147.147 146.679  0.00  0.00    +0.015 A 
ATOM     20  C   LIG    1      171.452 146.531 145.509  0.00  0.00    +0.018 A 
ATOM     21 BR   LIG    1      171.542 144.649 145.336  0.00  0.00    -0.050 Br
ATOM     22  C   LIG    1      170.945 147.305 144.468  0.00  0.00    +0.015 A 
ATOM     23  C   LIG    1      170.878 148.690 144.596  0.00  0.00    +0.008 A 
ENDBRANCH  16  17
ENDBRANCH  15  16
ENDBRANCH  14  15
ENDBRANCH   1  14
TORSDOF 4
ENDMDL
MODEL 6
REMARK VINA RESULT:      -6.7     14.794     16.723
REMARK  Name = ZINC000009075134
REMARK                            x       y       z     vdW  Elec       q    Type
REMARK                         _______ _______ _______ _____ _____    ______ ____
ROOT
ATOM      1  C   LIG    1      163.276 161.022 157.265  0.00  0.00    +0.061 A 
ATOM      2  C   LIG    1      162.176 161.894 157.350  0.00  0.00    +0.039 A 
ATOM      3  C   LIG    1      161.020 161.501 158.009  0.00  0.00    +0.048 A 
ATOM      4  N   LIG    1      159.916 162.393 158.023  0.00  0.00    -0.284 N 
ATOM      5  H   LIG    1      159.851 163.143 157.322  0.00  0.00    +0.155 HD
ATOM      6  C   LIG    1      158.841 162.294 158.845  0.00  0.00    +0.227 C 
ATOM      7  C   LIG    1      158.837 161.341 160.026  0.00  0.00    +0.170 C 
ATOM      8  S   LIG    1      159.479 159.724 159.451  0.00  0.00    -0.114 S 
ATOM      9  O   LIG    1      157.915 163.036 158.600  0.00  0.00    -0.275 OA
ATOM     10  C   LIG    1      160.921 160.230 158.610  0.00  0.00    +0.030 A 
ATOM     11  C   LIG    1      162.008 159.357 158.513  0.00  0.00    +0.017 A 
ATOM     12  C   LIG    1      163.168 159.748 157.855  0.00  0.00    +0.016 A 
ENDROOT
BRANCH   1  14
ATOM     13  O   LIG    1      165.555 161.664 157.145  0.00  0.00    -0.245 OA
ATOM     14  C   LIG    1      164.494 161.440 156.578  0.00  0.00    +0.340 C 
BRANCH  14  15
ATOM     15  O   LIG    1      164.448 161.602 155.234  0.00  0.00    -0.456 OA
BRANCH  15  16
ATOM     16  C   LIG    1      163.727 160.694 154.359  0.00  0.00    +0.268 C 
BRANCH  16  17
ATOM     17  C   LIG    1      163.079 161.587 153.318  0.00  0.00    -0.010 A 
ATOM     18  C   LIG    1      162.730 161.072 152.069  0.00  0.00    +0.008 A 
ATOM     19  C   LIG    1      162.134 161.891 151.114  0.00  0.00    +0.015 A 
ATOM     20  C   LIG    1      161.879 163.229 151.401  0.00  0.00    +0.018 A 
ATOM     21 BR   LIG    1      161.069 164.341 150.102  0.00  0.00    -0.050 Br
ATOM     22  C   LIG    1      162.220 163.745 152.649  0.00  0.00    +0.015 A 
ATOM     23  C   LIG    1      162.815 162.926 153.604  0.00  0.00    +0.008 A 
ENDBRANCH  16  17
ENDBRANCH  15  16
ENDBRANCH  14  15
ENDBRANCH   1  14
TORSDOF 4
ENDMDL
MODEL 7
REMARK VINA RESULT:      -6.7      3.288      4.711
REMARK  Name = ZINC000009075134
REMARK                            x       y       z     vdW  Elec       q    Type
REMARK                         _______ _______ _______ _____ _____    ______ ____
ROOT
ATOM      1  C   LIG    1      171.515 147.653 146.224  0.00  0.00    +0.061 A 
ATOM      2  C   LIG    1      171.501 148.274 147.485  0.00  0.00    +0.039 A 
ATOM      3  C   LIG    1      170.945 149.536 147.640  0.00  0.00    +0.048 A 
ATOM      4  N   LIG    1      171.003 150.145 148.920  0.00  0.00    -0.284 N 
ATOM      5  H   LIG    1      171.692 149.824 149.613  0.00  0.00    +0.155 HD
ATOM      6  C   LIG    1      170.272 151.221 149.307  0.00  0.00    +0.227 C 
ATOM      7  C   LIG    1      169.114 151.730 148.469  0.00  0.00    +0.170 C 
ATOM      8  S   LIG    1      169.667 151.802 146.724  0.00  0.00    -0.114 S 
ATOM      9  O   LIG    1      170.576 151.714 150.371  0.00  0.00    -0.275 OA
ATOM     10  C   LIG    1      170.379 150.220 146.545  0.00  0.00    +0.030 A 
ATOM     11  C   LIG    1      170.405 149.611 145.288  0.00  0.00    +0.017 A 
ATOM     12  C   LIG    1      170.960 148.346 145.130  0.00  0.00    +0.016 A 
ENDROOT
BRANCH   1  14
ATOM     13  O   LIG    1      173.283 146.113 145.874  0.00  0.00    -0.245 OA
ATOM     14  C   LIG    1      172.093 146.322 146.066  0.00  0.00    +0.340 C 
BRANCH  14  15
ATOM     15  O   LIG    1      171.263 145.253 146.124  0.00  0.00    -0.456 OA
BRANCH  15  16
ATOM     16  C   LIG    1      170.681 144.647 144.939  0.00  0.00    +0.268 C 
BRANCH  16  17
ATOM     17  C   LIG    1      169.213 144.462 145.277  0.00  0.00    -0.010 A 
ATOM     18  C   LIG    1      168.794 143.350 146.006  0.00  0.00    +0.008 A 
ATOM     19  C   LIG    1      167.448 143.181 146.318  0.00  0.00    +0.015 A 
ATOM     20  C   LIG    1      166.511 144.125 145.906  0.00  0.00    +0.018 A 
ATOM     21 BR   LIG    1      164.681 143.895 146.330  0.00  0.00    -0.050 Br
ATOM     22  C   LIG    1      166.926 145.241 145.184  0.00  0.00    +0.015 A 
ATOM     23  C   LIG    1      168.272 145.410 144.873  0.00  0.00    +0.008 A 
ENDBRANCH  16  17
ENDBRANCH  15  16
ENDBRANCH  14  15
ENDBRANCH   1  14
TORSDOF 4
ENDMDL
MODEL 8
REMARK VINA RESULT:      -6.7     11.469     13.436
REMARK  Name = ZINC000009075134
REMARK                            x       y       z     vdW  Elec       q    Type
REMARK                         _______ _______ _______ _____ _____    ______ ____
ROOT
ATOM      1  C   LIG    1      181.389 151.191 148.793  0.00  0.00    +0.061 A 
ATOM      2  C   LIG    1      181.873 151.380 150.099  0.00  0.00    +0.039 A 
ATOM      3  C   LIG    1      183.207 151.696 150.314  0.00  0.00    +0.048 A 
ATOM      4  N   LIG    1      183.663 151.823 151.651  0.00  0.00    -0.284 N 
ATOM      5  H   LIG    1      183.131 151.394 152.420  0.00  0.00    +0.155 HD
ATOM      6  C   LIG    1      184.834 152.397 152.027  0.00  0.00    +0.227 C 
ATOM      7  C   LIG    1      185.668 153.200 151.047  0.00  0.00    +0.170 C 
ATOM      8  S   LIG    1      185.780 152.248 149.486  0.00  0.00    -0.114 S 
ATOM      9  O   LIG    1      185.142 152.262 153.191  0.00  0.00    -0.275 OA
ATOM     10  C   LIG    1      184.103 151.841 149.235  0.00  0.00    +0.030 A 
ATOM     11  C   LIG    1      183.626 151.640 147.937  0.00  0.00    +0.017 A 
ATOM     12  C   LIG    1      182.290 151.324 147.718  0.00  0.00    +0.016 A 
ENDROOT
BRANCH   1  14
ATOM     13  O   LIG    1      179.593 149.802 148.110  0.00  0.00    -0.245 OA
ATOM     14  C   LIG    1      179.984 150.867 148.570  0.00  0.00    +0.340 C 
BRANCH  14  15
ATOM     15  O   LIG    1      179.054 151.802 148.880  0.00  0.00    -0.456 OA
BRANCH  15  16
ATOM     16  C   LIG    1      177.814 151.477 149.563  0.00  0.00    +0.268 C 
BRANCH  16  17
ATOM     17  C   LIG    1      178.208 151.279 151.015  0.00  0.00    -0.010 A 
ATOM     18  C   LIG    1      178.503 152.379 151.821  0.00  0.00    +0.008 A 
ATOM     19  C   LIG    1      178.862 152.198 153.153  0.00  0.00    +0.015 A 
ATOM     20  C   LIG    1      178.928 150.916 153.691  0.00  0.00    +0.018 A 
ATOM     21 BR   LIG    1      179.419 150.670 155.502  0.00  0.00    -0.050 Br
ATOM     22  C   LIG    1      178.629 149.815 152.892  0.00  0.00    +0.015 A 
ATOM     23  C   LIG    1      178.268 149.997 151.560  0.00  0.00    +0.008 A 
ENDBRANCH  16  17
ENDBRANCH  15  16
ENDBRANCH  14  15
ENDBRANCH   1  14
TORSDOF 4
ENDMDL
MODEL 9
REMARK VINA RESULT:      -6.7     14.584     15.848
REMARK  Name = ZINC000009075134
REMARK                            x       y       z     vdW  Elec       q    Type
REMARK                         _______ _______ _______ _____ _____    ______ ____
ROOT
ATOM      1  C   LIG    1      162.846 162.906 155.025  0.00  0.00    +0.061 A 
ATOM      2  C   LIG    1      161.845 162.232 154.303  0.00  0.00    +0.039 A 
ATOM      3  C   LIG    1      161.499 162.651 153.027  0.00  0.00    +0.048 A 
ATOM      4  N   LIG    1      160.446 161.975 152.358  0.00  0.00    -0.284 N 
ATOM      5  H   LIG    1      159.763 161.424 152.896  0.00  0.00    +0.155 HD
ATOM      6  C   LIG    1      160.179 162.062 151.030  0.00  0.00    +0.227 C 
ATOM      7  C   LIG    1      161.160 162.709 150.071  0.00  0.00    +0.170 C 
ATOM      8  S   LIG    1      161.725 164.284 150.815  0.00  0.00    -0.114 S 
ATOM      9  O   LIG    1      159.140 161.558 150.663  0.00  0.00    -0.275 OA
ATOM     10  C   LIG    1      162.141 163.751 152.423  0.00  0.00    +0.030 A 
ATOM     11  C   LIG    1      163.126 164.431 153.144  0.00  0.00    +0.017 A 
ATOM     12  C   LIG    1      163.476 164.012 154.424  0.00  0.00    +0.016 A 
ENDROOT
BRANCH   1  14
ATOM     13  O   LIG    1      164.279 162.723 156.905  0.00  0.00    -0.245 OA
ATOM     14  C   LIG    1      163.214 162.458 156.364  0.00  0.00    +0.340 C 
BRANCH  14  15
ATOM     15  O   LIG    1      162.330 161.694 157.050  0.00  0.00    -0.456 OA
BRANCH  15  16
ATOM     16  C   LIG    1      162.736 160.555 157.854  0.00  0.00    +0.268 C 
BRANCH  16  17
ATOM     17  C   LIG    1      161.978 159.376 157.272  0.00  0.00    -0.010 A 
ATOM     18  C   LIG    1      162.323 158.865 156.021  0.00  0.00    +0.008 A 
ATOM     19  C   LIG    1      161.630 157.783 155.488  0.00  0.00    +0.015 A 
ATOM     20  C   LIG    1      160.586 157.201 156.204  0.00  0.00    +0.018 A 
ATOM     21 BR   LIG    1      159.642 155.729 155.479  0.00  0.00    -0.050 Br
ATOM     22  C   LIG    1      160.242 157.703 157.456  0.00  0.00    +0.015 A 
ATOM     23  C   LIG    1      160.937 158.785 157.989  0.00  0.00    +0.008 A 
ENDBRANCH  16  17
ENDBRANCH  15  16
ENDBRANCH  14  15
ENDBRANCH   1  14
TORSDOF 4
ENDMDL
