REMARK VINA RESULT:      -7.7     40.501     43.690
REMARK  Name = ZINC000000622958
REMARK                            x       y       z     vdW  Elec       q    Type
REMARK                         _______ _______ _______ _____ _____    ______ ____
ROOT
ATOM      1  C   LIG    1      202.234 116.287 144.361  0.00  0.00    +0.271 C 
ATOM      2  N   LIG    1      202.216 114.860 144.158  0.00  0.00    -0.157 N 
ATOM      3  C   LIG    1      203.352 114.290 144.492  0.00  0.00    +0.250 C 
ATOM      4  C   LIG    1      203.651 112.801 144.389  0.00  0.00    +0.124 C 
ATOM      5  C   LIG    1      203.712 112.237 145.828  0.00  0.00    +0.012 C 
ATOM      6  C   LIG    1      205.073 112.580 146.463  0.00  0.00    +0.004 C 
ATOM      7  C   LIG    1      205.323 114.071 146.774  0.00  0.00    +0.045 C 
ATOM      8  C   LIG    1      205.534 114.859 145.466  0.00  0.00    +0.236 C 
ATOM      9  N   LIG    1      204.193 115.179 144.956  0.00  0.00    -0.258 N 
ATOM     10  C   LIG    1      203.606 116.535 145.037  0.00  0.00    +0.323 C 
ENDROOT
BRANCH   1  11
ATOM     11  C   LIG    1      201.069 116.742 145.245  0.00  0.00    +0.034 A 
ATOM     12  C   LIG    1      199.945 117.345 144.653  0.00  0.00    +0.060 A 
ATOM     13  C   LIG    1      198.902 117.759 145.465  0.00  0.00    +0.167 A 
ATOM     14  O   LIG    1      197.758 118.357 145.072  0.00  0.00    -0.453 OA
ATOM     15  C   LIG    1      196.976 118.597 146.313  0.00  0.00    +0.466 C 
ATOM     16  O   LIG    1      197.818 118.064 147.409  0.00  0.00    -0.453 OA
ATOM     17  C   LIG    1      198.939 117.589 146.825  0.00  0.00    +0.166 A 
ATOM     18  C   LIG    1      200.028 116.996 147.444  0.00  0.00    +0.050 A 
ATOM     19  C   LIG    1      201.095 116.573 146.647  0.00  0.00    +0.014 A 
ENDBRANCH   1  11
BRANCH   2  20
ATOM     20  C   LIG    1      201.061 114.165 143.712  0.00  0.00    +0.124 A 
ATOM     21  C   LIG    1      200.732 114.174 142.357  0.00  0.00    +0.050 A 
ATOM     22  C   LIG    1      199.605 113.477 141.928  0.00  0.00    +0.024 A 
ATOM     23  C   LIG    1      198.822 112.779 142.853  0.00  0.00    +0.041 A 
ATOM     24 CL   LIG    1      197.424 111.913 142.316  0.00  0.00    -0.084 Cl
ATOM     25  C   LIG    1      199.163 112.777 144.210  0.00  0.00    +0.024 A 
ATOM     26  C   LIG    1      200.287 113.472 144.644  0.00  0.00    +0.050 A 
ENDBRANCH   2  20
BRANCH   1  27
ATOM     27  O   LIG    1      202.211 116.868 143.064  0.00  0.00    -0.347 OA
ATOM     28  H   LIG    1      201.731 117.707 143.123  0.00  0.00    +0.215 HD
ENDBRANCH   1  27
TORSDOF 3
