REMARK VINA RESULT:      -7.5     16.246     19.527
REMARK  Name = 
REMARK                            x       y       z     vdW  Elec       q    Type
REMARK                         _______ _______ _______ _____ _____    ______ ____
ROOT
ATOM      1  C   LIG    1      194.098 100.753 156.564  0.00  0.00    +0.072 C 
ATOM      2  C   LIG    1      193.004 101.786 156.022  0.00  0.00    +0.070 C 
ATOM      3  N   LIG    1      192.826 101.144 154.627  0.00  0.00    -0.269 NA
ATOM      4  C   LIG    1      193.091 102.140 153.687  0.00  0.00    +0.073 C 
ATOM      5  C   LIG    1      194.471 102.586 154.196  0.00  0.00    +0.024 C 
ATOM      6  C   LIG    1      193.294  99.868 154.462  0.00  0.00    +0.099 C 
ATOM      7  C   LIG    1      194.804  99.872 154.595  0.00  0.00    -0.013 C 
ATOM      8  C   LIG    1      193.988 102.968 155.558  0.00  0.00    +0.055 C 
ATOM      9  C   LIG    1      195.230 102.953 156.561  0.00  0.00    +0.120 C 
ATOM     10  C   LIG    1      194.532 102.683 157.980  0.00  0.00    +0.268 C 
ATOM     11  O   LIG    1      195.712 102.959 158.705  0.00  0.00    -0.209 OA
ATOM     12  N   LIG    1      195.318 104.492 156.805  0.00  0.00    -0.304 N 
ATOM     13  C   LIG    1      196.426 105.073 157.508  0.00  0.00    +0.112 C 
ATOM     14  C   LIG    1      194.213 105.099 156.249  0.00  0.00    +0.047 A 
ATOM     15  C   LIG    1      193.852 106.421 156.351  0.00  0.00    +0.051 A 
ATOM     16  C   LIG    1      192.732 106.956 155.757  0.00  0.00    +0.137 A 
ATOM     17  C   LIG    1      191.953 106.105 155.028  0.00  0.00    +0.026 A 
ATOM     18  C   LIG    1      192.326 104.780 154.933  0.00  0.00    -0.003 A 
ATOM     19  C   LIG    1      193.445 104.244 155.528  0.00  0.00    -0.007 A 
ATOM     20  C   LIG    1      194.350 101.085 158.113  0.00  0.00    +0.213 C 
ATOM     21  C   LIG    1      195.122 100.379 155.788  0.00  0.00    -0.025 C 
ENDROOT
BRANCH  17  22
ATOM     22  C   LIG    1      190.732 106.644 154.332  0.00  0.00    +0.146 C 
ATOM     23  C   LIG    1      190.347 105.915 153.132  0.00  0.00    +0.068 A 
ATOM     24  C   LIG    1      189.265 106.083 152.336  0.00  0.00    -0.005 A 
ATOM     25  C   LIG    1      189.319 105.130 151.336  0.00  0.00    +0.015 A 
ATOM     26  C   LIG    1      190.445 104.390 151.543  0.00  0.00    +0.081 A 
ATOM     27  C   LIG    1      190.839 103.332 150.736  0.00  0.00    +0.019 A 
ATOM     28  C   LIG    1      190.060 103.002 149.666  0.00  0.00    +0.002 A 
ATOM     29  C   LIG    1      188.919 103.734 149.437  0.00  0.00    +0.000 A 
ATOM     30  C   LIG    1      188.535 104.794 150.257  0.00  0.00    +0.001 A 
ATOM     31  C   LIG    1      188.183 107.142 152.529  0.00  0.00    +0.045 C 
ATOM     32  C   LIG    1      188.320 108.223 151.474  0.00  0.00    +0.077 C 
ATOM     33  N   LIG    1      188.573 109.539 152.112  0.00  0.00    -0.270 NA
ATOM     34  C   LIG    1      189.331 110.379 151.252  0.00  0.00    +0.103 C 
ATOM     35  C   LIG    1      190.726 110.664 151.602  0.00  0.00    +0.141 C 
ATOM     36  C   LIG    1      191.523 109.631 152.287  0.00  0.00    +0.033 C 
ATOM     37  C   LIG    1      190.542 108.362 152.619  0.00  0.00    +0.020 C 
ATOM     38  O   LIG    1      190.860 111.864 152.348  0.00  0.00    -0.224 OA
ATOM     39  C   LIG    1      189.411 109.357 153.281  0.00  0.00    +0.072 C 
ATOM     40  N   LIG    1      191.038 104.876 152.615  0.00  0.00    -0.249 NA
ATOM     41  C   LIG    1      191.172 108.039 154.041  0.00  0.00    +0.022 C 
BRANCH  35  42
ATOM     42  C   LIG    1      191.474 110.971 150.287  0.00  0.00    +0.032 C 
ATOM     43  C   LIG    1      190.335 110.845 149.256  0.00  0.00    +0.003 C 
ENDBRANCH  35  42
BRANCH  22  44
ATOM     44  C   LIG    1      189.678 106.485 155.341  0.00  0.00    +0.325 C 
ATOM     45  O   LIG    1      189.195 105.350 155.466  0.00  0.00    -0.249 OA
BRANCH  44  46
ATOM     46  O   LIG    1      189.149 107.439 156.177  0.00  0.00    -0.444 OA
ATOM     47  C   LIG    1      187.751 107.633 156.218  0.00  0.00    +0.256 C 
ENDBRANCH  44  46
ENDBRANCH  22  44
ENDBRANCH  17  22
BRANCH   1  49
ATOM     48  C   LIG    1      192.549  99.690 157.880  0.00  0.00    +0.001 C 
ATOM     49  C   LIG    1      193.148  99.536 156.808  0.00  0.00    +0.009 C 
ENDBRANCH   1  49
BRANCH  10  50
ATOM     50  C   LIG    1      193.507 103.410 158.489  0.00  0.00    +0.350 C 
ATOM     51  O   LIG    1      193.832 104.156 159.467  0.00  0.00    -0.247 OA
BRANCH  50  52
ATOM     52  O   LIG    1      192.159 103.621 158.290  0.00  0.00    -0.443 OA
ATOM     53  C   LIG    1      191.379 104.721 158.621  0.00  0.00    +0.256 C 
ENDBRANCH  50  52
ENDBRANCH  10  50
BRANCH  16  54
ATOM     54  O   LIG    1      192.432 108.332 155.917  0.00  0.00    -0.472 OA
ATOM     55  C   LIG    1      193.012 109.030 157.007  0.00  0.00    +0.252 C 
ENDBRANCH  16  54
BRANCH  20  56
ATOM     56  O   LIG    1      195.798 100.683 158.123  0.00  0.00    -0.449 OA
BRANCH  56  57
ATOM     57  C   LIG    1      196.247  99.687 158.918  0.00  0.00    +0.318 C 
ATOM     58  O   LIG    1      196.537  99.899 160.118  0.00  0.00    -0.250 OA
ATOM     59  C   LIG    1      196.417  98.293 158.400  0.00  0.00    +0.121 C 
ENDBRANCH  56  57
ENDBRANCH  20  56
TORSDOF 10
