REMARK VINA RESULT:      -6.3     11.855     14.822
REMARK  Name = ZINC000049483930
REMARK                            x       y       z     vdW  Elec       q    Type
REMARK                         _______ _______ _______ _____ _____    ______ ____
ROOT
ATOM      1  O   LIG    1      189.841  91.791 156.674  0.00  0.00    -0.275 OA
ATOM      2  C   LIG    1      188.867  91.196 157.089  0.00  0.00    +0.226 C 
ATOM      3  N   LIG    1      189.049  90.268 158.068  0.00  0.00    -0.299 N 
ATOM      4  C   LIG    1      188.118  89.449 158.846  0.00  0.00    +0.122 C 
ATOM      5  C   LIG    1      189.381  88.911 159.589  0.00  0.00    +0.112 C 
ATOM      6  C   LIG    1      190.274  89.900 158.779  0.00  0.00    +0.122 C 
ENDROOT
BRANCH   5   7
ATOM      7  C   LIG    1      189.681  87.472 159.234  0.00  0.00    +0.234 A 
ATOM      8  O   LIG    1      190.910  86.998 159.298  0.00  0.00    -0.337 OA
ATOM      9  N   LIG    1      190.879  85.732 158.944  0.00  0.00    -0.056 NA
ATOM     10  C   LIG    1      189.641  85.482 158.680  0.00  0.00    +0.209 A 
ATOM     11  N   LIG    1      188.861  86.579 158.856  0.00  0.00    -0.191 NA
BRANCH  10  12
ATOM     12  C   LIG    1      189.143  84.181 158.251  0.00  0.00    +0.060 A 
ATOM     13  S   LIG    1      187.475  83.730 158.442  0.00  0.00    -0.093 S 
ATOM     14  C   LIG    1      187.764  82.183 157.734  0.00  0.00    +0.046 A 
ATOM     15  C   LIG    1      189.071  82.028 157.372  0.00  0.00    +0.008 A 
ATOM     16  C   LIG    1      189.852  83.156 157.664  0.00  0.00    +0.019 A 
ENDBRANCH  10  12
ENDBRANCH   5   7
BRANCH   2  17
ATOM     17  C   LIG    1      187.471  91.472 156.573  0.00  0.00    +0.174 C 
BRANCH  17  18
ATOM     18  S   LIG    1      187.708  92.369 154.993  0.00  0.00    -0.058 S 
BRANCH  18  19
ATOM     19  C   LIG    1      187.499  91.083 153.851  0.00  0.00    +0.258 A 
ATOM     20  O   LIG    1      186.283  90.470 153.800  0.00  0.00    -0.431 OA
ATOM     21  C   LIG    1      186.425  89.543 152.843  0.00  0.00    +0.156 A 
ATOM     22  C   LIG    1      185.494  88.625 152.366  0.00  0.00    +0.048 A 
ATOM     23  C   LIG    1      185.899  87.761 151.353  0.00  0.00    +0.004 A 
ATOM     24  C   LIG    1      187.211  87.831 150.845  0.00  0.00    +0.002 A 
ATOM     25  C   LIG    1      188.118  88.762 151.344  0.00  0.00    +0.031 A 
ATOM     26  C   LIG    1      187.711  89.632 152.362  0.00  0.00    +0.110 A 
ATOM     27  N   LIG    1      188.386  90.624 153.023  0.00  0.00    -0.203 NA
ENDBRANCH  18  19
ENDBRANCH  17  18
ENDBRANCH   2  17
TORSDOF 5
