REMARK VINA RESULT:      -7.2      6.133      9.034
REMARK  Name = ZINC000000622956
REMARK                            x       y       z     vdW  Elec       q    Type
REMARK                         _______ _______ _______ _____ _____    ______ ____
ROOT
ATOM      1  C   LIG    1      168.358 141.633 151.900  0.00  0.00    +0.271 C 
ATOM      2  N   LIG    1      169.578 142.363 151.655  0.00  0.00    -0.157 N 
ATOM      3  C   LIG    1      170.290 142.525 152.749  0.00  0.00    +0.250 C 
ATOM      4  C   LIG    1      171.643 143.218 152.821  0.00  0.00    +0.124 C 
ATOM      5  C   LIG    1      172.711 142.133 153.085  0.00  0.00    +0.012 C 
ATOM      6  C   LIG    1      172.704 141.747 154.576  0.00  0.00    +0.004 C 
ATOM      7  C   LIG    1      171.455 140.992 155.077  0.00  0.00    +0.045 C 
ATOM      8  C   LIG    1      170.245 141.945 155.137  0.00  0.00    +0.236 C 
ATOM      9  N   LIG    1      169.688 141.988 153.779  0.00  0.00    -0.258 N 
ATOM     10  C   LIG    1      168.418 141.325 153.416  0.00  0.00    +0.323 C 
ENDROOT
BRANCH   1  11
ATOM     11  C   LIG    1      167.120 142.467 151.549  0.00  0.00    +0.034 A 
ATOM     12  C   LIG    1      166.427 142.274 150.341  0.00  0.00    +0.060 A 
ATOM     13  C   LIG    1      165.309 143.052 150.084  0.00  0.00    +0.167 A 
ATOM     14  O   LIG    1      164.525 143.008 148.985  0.00  0.00    -0.453 OA
ATOM     15  C   LIG    1      163.461 144.021 149.200  0.00  0.00    +0.466 C 
ATOM     16  O   LIG    1      163.764 144.624 150.520  0.00  0.00    -0.453 OA
ATOM     17  C   LIG    1      164.864 143.991 150.977  0.00  0.00    +0.166 A 
ATOM     18  C   LIG    1      165.517 144.204 152.180  0.00  0.00    +0.050 A 
ATOM     19  C   LIG    1      166.647 143.434 152.463  0.00  0.00    +0.014 A 
ENDBRANCH   1  11
BRANCH   2  20
ATOM     20  C   LIG    1      169.995 142.772 150.365  0.00  0.00    +0.124 A 
ATOM     21  C   LIG    1      170.762 141.891 149.604  0.00  0.00    +0.050 A 
ATOM     22  C   LIG    1      171.181 142.282 148.336  0.00  0.00    +0.024 A 
ATOM     23  C   LIG    1      170.831 143.544 147.844  0.00  0.00    +0.041 A 
ATOM     24 CL   LIG    1      171.354 144.027 146.267  0.00  0.00    -0.084 Cl
ATOM     25  C   LIG    1      170.064 144.419 148.620  0.00  0.00    +0.024 A 
ATOM     26  C   LIG    1      169.642 144.034 149.889  0.00  0.00    +0.050 A 
ENDBRANCH   2  20
BRANCH   1  27
ATOM     27  O   LIG    1      168.440 140.438 151.134  0.00  0.00    -0.347 OA
ATOM     28  H   LIG    1      167.987 140.595 150.292  0.00  0.00    +0.215 HD
ENDBRANCH   1  27
TORSDOF 3
