REMARK VINA RESULT:      -7.4      3.390      5.320
REMARK  Name = 
REMARK                            x       y       z     vdW  Elec       q    Type
REMARK                         _______ _______ _______ _____ _____    ______ ____
ROOT
ATOM      1  C   LIG    1      169.136 143.191 152.294  0.00  0.00    +0.035 A 
ATOM      2  C   LIG    1      169.484 142.756 151.036  0.00  0.00    +0.007 A 
ATOM      3  C   LIG    1      170.767 142.274 150.793  0.00  0.00    +0.051 A 
ATOM      4  C   LIG    1      171.730 142.210 151.777  0.00  0.00    +0.086 A 
ATOM      5  N   LIG    1      172.981 141.744 151.553  0.00  0.00    -0.224 NA
ATOM      6  C   LIG    1      173.274 141.330 150.314  0.00  0.00    +0.200 A 
ATOM      7  N   LIG    1      172.349 141.381 149.330  0.00  0.00    -0.207 NA
ATOM      8  C   LIG    1      171.352 142.656 153.037  0.00  0.00    +0.019 A 
ATOM      9  C   LIG    1      171.115 141.833 149.517  0.00  0.00    +0.155 A 
ATOM     10  C   LIG    1      170.087 143.136 153.289  0.00  0.00    +0.005 A 
ENDROOT
BRANCH   1  13
ATOM     11  C   LIG    1      165.825 144.575 152.266  0.00  0.00    +0.140 A 
ATOM     12  O   LIG    1      166.957 144.238 151.716  0.00  0.00    -0.456 OA
ATOM     13  C   LIG    1      167.789 143.693 152.532  0.00  0.00    +0.145 A 
ATOM     14  C   LIG    1      167.165 143.651 153.775  0.00  0.00    +0.040 A 
ATOM     15  C   LIG    1      165.923 144.210 153.601  0.00  0.00    +0.038 A 
BRANCH  11  16
ATOM     16  C   LIG    1      164.631 145.227 151.630  0.00  0.00    +0.153 C 
BRANCH  16  17
ATOM     17  N   LIG    1      164.952 145.602 150.258  0.00  0.00    -0.208 NA
BRANCH  17  18
ATOM     18  C   LIG    1      164.717 144.451 149.414  0.00  0.00    +0.114 C 
BRANCH  18  19
ATOM     19  C   LIG    1      164.275 144.834 148.030  0.00  0.00    +0.170 C 
BRANCH  19  21
ATOM     20  C   LIG    1      165.537 144.497 145.455  0.00  0.00    +0.176 C 
ATOM     21  S   LIG    1      164.802 143.653 146.812  0.00  0.00    -0.007 S 
ATOM     22  O   LIG    1      163.567 142.952 146.302  0.00  0.00    -0.173 OA
ATOM     23  O   LIG    1      165.776 142.661 147.394  0.00  0.00    -0.173 OA
ENDBRANCH  19  21
ENDBRANCH  18  19
ENDBRANCH  17  18
ENDBRANCH  16  17
ENDBRANCH  11  16
ENDBRANCH   1  13
BRANCH   9  24
ATOM     24  N   LIG    1      170.123 141.905 148.525  0.00  0.00    -0.194 NA
BRANCH  24  25
ATOM     25  C   LIG    1      169.984 143.027 147.707  0.00  0.00    +0.073 A 
ATOM     26  C   LIG    1      170.864 143.304 146.657  0.00  0.00    +0.031 A 
ATOM     27  C   LIG    1      170.675 144.414 145.892  0.00  0.00    +0.093 A 
ATOM     28 CL   LIG    1      171.763 144.822 144.552  0.00  0.00    -0.079 Cl
ATOM     29  C   LIG    1      169.633 145.295 146.115  0.00  0.00    +0.150 A 
ATOM     30  C   LIG    1      168.760 145.033 147.147  0.00  0.00    +0.039 A 
ATOM     31  C   LIG    1      168.952 143.913 147.915  0.00  0.00    +0.020 A 
BRANCH  29  32
ATOM     32  O   LIG    1      169.473 146.431 145.301  0.00  0.00    -0.470 OA
BRANCH  32  33
ATOM     33  C   LIG    1      170.269 147.571 145.607  0.00  0.00    +0.232 C 
BRANCH  33  34
ATOM     34  C   LIG    1      169.338 148.681 145.912  0.00  0.00    +0.023 A 
ATOM     35  C   LIG    1      168.786 149.473 144.927  0.00  0.00    +0.029 A 
ATOM     36  C   LIG    1      167.912 150.505 145.282  0.00  0.00    +0.140 A 
ATOM     37  F   LIG    1      167.341 151.312 144.350  0.00  0.00    -0.204 F 
ATOM     38  C   LIG    1      167.601 150.733 146.602  0.00  0.00    +0.030 A 
ATOM     39  C   LIG    1      168.143 149.952 147.577  0.00  0.00    +0.002 A 
ATOM     40  C   LIG    1      169.008 148.932 147.223  0.00  0.00    -0.001 A 
ENDBRANCH  33  34
ENDBRANCH  32  33
ENDBRANCH  29  32
ENDBRANCH  24  25
ENDBRANCH   9  24
TORSDOF 11
