REMARK VINA RESULT:      -6.8     58.786     61.623
REMARK  Name = ZINC000000622958
REMARK                            x       y       z     vdW  Elec       q    Type
REMARK                         _______ _______ _______ _____ _____    ______ ____
ROOT
ATOM      1  C   LIG    1      188.148  88.824 155.586  0.00  0.00    +0.271 C 
ATOM      2  N   LIG    1      187.609  87.616 155.014  0.00  0.00    -0.157 N 
ATOM      3  C   LIG    1      186.961  87.836 153.892  0.00  0.00    +0.250 C 
ATOM      4  C   LIG    1      186.273  86.771 153.051  0.00  0.00    +0.124 C 
ATOM      5  C   LIG    1      187.103  86.589 151.758  0.00  0.00    +0.012 C 
ATOM      6  C   LIG    1      186.787  87.730 150.773  0.00  0.00    +0.004 C 
ATOM      7  C   LIG    1      187.274  89.136 151.180  0.00  0.00    +0.045 C 
ATOM      8  C   LIG    1      186.427  89.674 152.351  0.00  0.00    +0.236 C 
ATOM      9  N   LIG    1      187.009  89.105 153.576  0.00  0.00    -0.258 N 
ATOM     10  C   LIG    1      187.827  89.900 154.519  0.00  0.00    +0.323 C 
ENDROOT
BRANCH   1  11
ATOM     11  C   LIG    1      189.654  88.700 155.839  0.00  0.00    +0.034 A 
ATOM     12  C   LIG    1      190.114  88.356 157.124  0.00  0.00    +0.060 A 
ATOM     13  C   LIG    1      191.478  88.255 157.341  0.00  0.00    +0.167 A 
ATOM     14  O   LIG    1      192.093  87.944 158.501  0.00  0.00    -0.453 OA
ATOM     15  C   LIG    1      193.550  87.968 158.211  0.00  0.00    +0.466 C 
ATOM     16  O   LIG    1      193.651  88.321 156.775  0.00  0.00    -0.453 OA
ATOM     17  C   LIG    1      192.384  88.476 156.336  0.00  0.00    +0.166 A 
ATOM     18  C   LIG    1      191.969  88.812 155.057  0.00  0.00    +0.050 A 
ATOM     19  C   LIG    1      190.597  88.925 154.813  0.00  0.00    +0.014 A 
ENDBRANCH   1  11
BRANCH   2  20
ATOM     20  C   LIG    1      187.829  86.334 155.583  0.00  0.00    +0.124 A 
ATOM     21  C   LIG    1      186.996  85.882 156.606  0.00  0.00    +0.050 A 
ATOM     22  C   LIG    1      187.213  84.618 157.148  0.00  0.00    +0.024 A 
ATOM     23  C   LIG    1      188.253  83.819 156.663  0.00  0.00    +0.041 A 
ATOM     24 CL   LIG    1      188.517  82.248 157.337  0.00  0.00    -0.084 Cl
ATOM     25  C   LIG    1      189.082  84.283 155.636  0.00  0.00    +0.024 A 
ATOM     26  C   LIG    1      188.871  85.546 155.091  0.00  0.00    +0.050 A 
ENDBRANCH   2  20
BRANCH   1  27
ATOM     27  O   LIG    1      187.400  89.064 156.771  0.00  0.00    -0.347 OA
ATOM     28  H   LIG    1      187.407  90.018 156.938  0.00  0.00    +0.215 HD
ENDBRANCH   1  27
TORSDOF 3
