REMARK VINA RESULT:      -6.7     70.777     73.163
REMARK  Name = ZINC000049483930
REMARK                            x       y       z     vdW  Elec       q    Type
REMARK                         _______ _______ _______ _____ _____    ______ ____
ROOT
ATOM      1  O   LIG    1      178.341 148.094 156.168  0.00  0.00    -0.275 OA
ATOM      2  C   LIG    1      177.341 148.783 156.176  0.00  0.00    +0.226 C 
ATOM      3  N   LIG    1      176.535 148.736 157.272  0.00  0.00    -0.299 N 
ATOM      4  C   LIG    1      175.331 149.477 157.652  0.00  0.00    +0.122 C 
ATOM      5  C   LIG    1      175.380 148.660 158.982  0.00  0.00    +0.112 C 
ATOM      6  C   LIG    1      176.719 148.005 158.526  0.00  0.00    +0.122 C 
ENDROOT
BRANCH   5   7
ATOM      7  C   LIG    1      174.263 147.644 159.067  0.00  0.00    +0.234 A 
ATOM      8  O   LIG    1      173.707 147.341 160.225  0.00  0.00    -0.337 OA
ATOM      9  N   LIG    1      172.771 146.444 160.006  0.00  0.00    -0.056 NA
ATOM     10  C   LIG    1      172.789 146.236 158.733  0.00  0.00    +0.209 A 
ATOM     11  N   LIG    1      173.735 146.990 158.116  0.00  0.00    -0.191 NA
BRANCH  10  12
ATOM     12  C   LIG    1      171.899 145.310 158.043  0.00  0.00    +0.060 A 
ATOM     13  S   LIG    1      170.944 145.803 156.677  0.00  0.00    -0.093 S 
ATOM     14  C   LIG    1      170.267 144.223 156.522  0.00  0.00    +0.046 A 
ATOM     15  C   LIG    1      170.752 143.369 157.470  0.00  0.00    +0.008 A 
ATOM     16  C   LIG    1      171.675 143.982 158.330  0.00  0.00    +0.019 A 
ENDBRANCH  10  12
ENDBRANCH   5   7
BRANCH   2  17
ATOM     17  C   LIG    1      176.984 149.702 155.026  0.00  0.00    +0.174 C 
BRANCH  17  18
ATOM     18  S   LIG    1      178.052 151.175 155.236  0.00  0.00    -0.058 S 
BRANCH  18  19
ATOM     19  C   LIG    1      178.326 151.619 153.584  0.00  0.00    +0.258 A 
ATOM     20  O   LIG    1      177.799 150.818 152.614  0.00  0.00    -0.431 OA
ATOM     21  C   LIG    1      178.167 151.407 151.468  0.00  0.00    +0.156 A 
ATOM     22  C   LIG    1      177.900 151.022 150.158  0.00  0.00    +0.048 A 
ATOM     23  C   LIG    1      178.404 151.818 149.134  0.00  0.00    +0.004 A 
ATOM     24  C   LIG    1      179.156 152.970 149.438  0.00  0.00    +0.002 A 
ATOM     25  C   LIG    1      179.405 153.328 150.761  0.00  0.00    +0.031 A 
ATOM     26  C   LIG    1      178.898 152.528 151.790  0.00  0.00    +0.110 A 
ATOM     27  N   LIG    1      178.991 152.645 153.152  0.00  0.00    -0.203 NA
ENDBRANCH  18  19
ENDBRANCH  17  18
ENDBRANCH   2  17
TORSDOF 5
