REMARK VINA RESULT:      -7.2     46.927     52.133
REMARK  Name = 
REMARK                            x       y       z     vdW  Elec       q    Type
REMARK                         _______ _______ _______ _____ _____    ______ ____
ROOT
ATOM      1  C   LIG    1      197.273 101.121 155.503  0.00  0.00    +0.072 C 
ATOM      2  C   LIG    1      198.389 100.862 156.610  0.00  0.00    +0.070 C 
ATOM      3  N   LIG    1      199.590 101.366 155.769  0.00  0.00    -0.269 NA
ATOM      4  C   LIG    1      200.296 100.350 155.219  0.00  0.00    +0.073 C 
ATOM      5  C   LIG    1      199.320  99.173 155.062  0.00  0.00    +0.024 C 
ATOM      6  C   LIG    1      199.237 102.349 154.834  0.00  0.00    +0.099 C 
ATOM      7  C   LIG    1      198.582 101.581 153.698  0.00  0.00    -0.013 C 
ATOM      8  C   LIG    1      198.760  99.307 156.309  0.00  0.00    +0.055 C 
ATOM      9  C   LIG    1      197.552  98.384 156.737  0.00  0.00    +0.127 C 
ATOM     10  C   LIG    1      196.397  98.914 155.787  0.00  0.00    +0.268 C 
ATOM     11  O   LIG    1      196.736  98.771 154.498  0.00  0.00    -0.209 OA
ATOM     12  N   LIG    1      197.341  99.028 158.061  0.00  0.00    -0.250 N 
ATOM     13  C   LIG    1      196.232  99.519 158.638  0.00  0.00    +0.307 C 
ATOM     14  O   LIG    1      196.137 100.030 159.768  0.00  0.00    -0.265 OA
ATOM     15  C   LIG    1      198.692  98.954 158.564  0.00  0.00    +0.053 A 
ATOM     16  C   LIG    1      199.070  98.761 159.871  0.00  0.00    +0.051 A 
ATOM     17  C   LIG    1      200.440  98.689 160.136  0.00  0.00    +0.137 A 
ATOM     18  C   LIG    1      201.369  98.805 159.147  0.00  0.00    +0.026 A 
ATOM     19  C   LIG    1      200.916  98.997 157.853  0.00  0.00    -0.003 A 
ATOM     20  C   LIG    1      199.578  99.078 157.524  0.00  0.00    -0.006 A 
ATOM     21  C   LIG    1      195.969 100.392 156.190  0.00  0.00    +0.213 C 
ATOM     22  C   LIG    1      197.520 100.952 154.192  0.00  0.00    -0.025 C 
ENDROOT
BRANCH  18  23
ATOM     23  C   LIG    1      202.803  98.760 159.515  0.00  0.00    +0.146 C 
ATOM     24  C   LIG    1      203.265  97.385 159.845  0.00  0.00    +0.068 A 
ATOM     25  C   LIG    1      204.549  97.077 160.177  0.00  0.00    -0.005 A 
ATOM     26  C   LIG    1      204.587  95.688 160.419  0.00  0.00    +0.015 A 
ATOM     27  C   LIG    1      203.312  95.191 160.223  0.00  0.00    +0.081 A 
ATOM     28  C   LIG    1      203.092  93.828 160.403  0.00  0.00    +0.019 A 
ATOM     29  C   LIG    1      204.100  92.961 160.769  0.00  0.00    +0.002 A 
ATOM     30  C   LIG    1      205.363  93.450 160.964  0.00  0.00    +0.000 A 
ATOM     31  C   LIG    1      205.572  94.794 160.784  0.00  0.00    +0.001 A 
ATOM     32  C   LIG    1      205.722  97.944 160.285  0.00  0.00    +0.045 C 
ATOM     33  C   LIG    1      206.391  98.065 161.586  0.00  0.00    +0.077 C 
ATOM     34  N   LIG    1      205.842  98.981 162.530  0.00  0.00    -0.270 NA
ATOM     35  C   LIG    1      206.316 100.345 162.437  0.00  0.00    +0.103 C 
ATOM     36  C   LIG    1      205.297 101.377 162.825  0.00  0.00    +0.141 C 
ATOM     37  C   LIG    1      204.016 101.323 161.979  0.00  0.00    +0.033 C 
ATOM     38  C   LIG    1      204.354 100.037 161.062  0.00  0.00    +0.020 C 
ATOM     39  O   LIG    1      205.891 102.632 162.547  0.00  0.00    -0.224 OA
ATOM     40  C   LIG    1      204.426  99.033 162.373  0.00  0.00    +0.072 C 
ATOM     41  N   LIG    1      202.557  96.222 159.885  0.00  0.00    -0.249 NA
ATOM     42  C   LIG    1      202.845  99.619 160.750  0.00  0.00    +0.022 C 
BRANCH  36  43
ATOM     43  C   LIG    1      204.916 101.335 164.264  0.00  0.00    +0.032 C 
ATOM     44  C   LIG    1      206.147 101.483 165.121  0.00  0.00    +0.003 C 
ENDBRANCH  36  43
BRANCH  23  45
ATOM     45  C   LIG    1      203.592  99.199 158.373  0.00  0.00    +0.325 C 
ATOM     46  O   LIG    1      203.632 100.479 158.186  0.00  0.00    -0.249 OA
BRANCH  45  47
ATOM     47  O   LIG    1      204.305  98.504 157.445  0.00  0.00    -0.444 OA
ATOM     48  C   LIG    1      203.707  97.777 156.389  0.00  0.00    +0.256 C 
ENDBRANCH  45  47
ENDBRANCH  23  45
ENDBRANCH  18  23
BRANCH   1  50
ATOM     49  C   LIG    1      196.763 102.844 156.883  0.00  0.00    +0.001 C 
ATOM     50  C   LIG    1      196.915 102.594 155.826  0.00  0.00    +0.009 C 
ENDBRANCH   1  50
BRANCH  10  51
ATOM     51  C   LIG    1      195.338  97.918 156.017  0.00  0.00    +0.350 C 
ATOM     52  O   LIG    1      194.100  98.096 155.926  0.00  0.00    -0.247 OA
BRANCH  51  53
ATOM     53  O   LIG    1      195.655  96.597 156.383  0.00  0.00    -0.443 OA
ATOM     54  C   LIG    1      194.792  95.779 157.124  0.00  0.00    +0.256 C 
ENDBRANCH  51  53
ENDBRANCH  10  51
BRANCH  17  55
ATOM     55  O   LIG    1      200.782  98.483 161.497  0.00  0.00    -0.472 OA
ATOM     56  C   LIG    1      199.938  97.788 162.378  0.00  0.00    +0.252 C 
ENDBRANCH  17  55
BRANCH  21  57
ATOM     57  O   LIG    1      195.111 100.669 154.970  0.00  0.00    -0.449 OA
BRANCH  57  58
ATOM     58  C   LIG    1      193.925 101.274 155.248  0.00  0.00    +0.318 C 
ATOM     59  O   LIG    1      193.093 101.816 154.513  0.00  0.00    -0.250 OA
ATOM     60  C   LIG    1      193.524 101.305 156.715  0.00  0.00    +0.121 C 
ENDBRANCH  57  58
ENDBRANCH  21  57
TORSDOF 10
