REMARK VINA RESULT:      -7.4     47.148     50.123
REMARK  Name = ZINC000000622956
REMARK                            x       y       z     vdW  Elec       q    Type
REMARK                         _______ _______ _______ _____ _____    ______ ____
ROOT
ATOM      1  C   LIG    1      205.779 115.374 145.123  0.00  0.00    +0.271 C 
ATOM      2  N   LIG    1      205.618 114.849 143.789  0.00  0.00    -0.157 N 
ATOM      3  C   LIG    1      204.553 115.332 143.189  0.00  0.00    +0.250 C 
ATOM      4  C   LIG    1      204.125 115.006 141.765  0.00  0.00    +0.124 C 
ATOM      5  C   LIG    1      204.362 116.269 140.906  0.00  0.00    +0.012 C 
ATOM      6  C   LIG    1      203.222 117.278 141.136  0.00  0.00    +0.004 C 
ATOM      7  C   LIG    1      203.169 117.936 142.531  0.00  0.00    +0.045 C 
ATOM      8  C   LIG    1      202.711 116.910 143.586  0.00  0.00    +0.236 C 
ATOM      9  N   LIG    1      203.910 116.156 143.975  0.00  0.00    -0.258 N 
ATOM     10  C   LIG    1      204.579 116.339 145.280  0.00  0.00    +0.323 C 
ENDROOT
BRANCH   1  11
ATOM     11  C   LIG    1      205.740 114.261 146.177  0.00  0.00    +0.034 A 
ATOM     12  C   LIG    1      206.882 113.923 146.925  0.00  0.00    +0.060 A 
ATOM     13  C   LIG    1      206.783 112.914 147.872  0.00  0.00    +0.167 A 
ATOM     14  O   LIG    1      207.767 112.457 148.675  0.00  0.00    -0.453 OA
ATOM     15  C   LIG    1      207.153 111.393 149.509  0.00  0.00    +0.466 C 
ATOM     16  O   LIG    1      205.742 111.315 149.059  0.00  0.00    -0.453 OA
ATOM     17  C   LIG    1      205.605 112.251 148.096  0.00  0.00    +0.166 A 
ATOM     18  C   LIG    1      204.459 112.563 147.384  0.00  0.00    +0.050 A 
ATOM     19  C   LIG    1      204.532 113.574 146.425  0.00  0.00    +0.014 A 
ENDBRANCH   1  11
BRANCH   2  20
ATOM     20  C   LIG    1      206.556 113.985 143.175  0.00  0.00    +0.124 A 
ATOM     21  C   LIG    1      206.509 112.626 143.481  0.00  0.00    +0.050 A 
ATOM     22  C   LIG    1      207.429 111.766 142.886  0.00  0.00    +0.024 A 
ATOM     23  C   LIG    1      208.382 112.272 141.998  0.00  0.00    +0.041 A 
ATOM     24 CL   LIG    1      209.524 111.201 141.261  0.00  0.00    -0.084 Cl
ATOM     25  C   LIG    1      208.421 113.639 141.702  0.00  0.00    +0.024 A 
ATOM     26  C   LIG    1      207.504 114.504 142.294  0.00  0.00    +0.050 A 
ENDBRANCH   2  20
BRANCH   1  27
ATOM     27  O   LIG    1      207.010 116.086 145.133  0.00  0.00    -0.347 OA
ATOM     28  H   LIG    1      207.098 116.513 145.998  0.00  0.00    +0.215 HD
ENDBRANCH   1  27
TORSDOF 3
