REMARK VINA RESULT:      -7.7    106.302    112.869
REMARK  Name = 
REMARK                            x       y       z     vdW  Elec       q    Type
REMARK                         _______ _______ _______ _____ _____    ______ ____
ROOT
ATOM      1  C   LIG    1      158.643 191.887 160.707  0.00  0.00    +0.032 C 
ATOM      2  C   LIG    1      157.377 191.164 161.037  0.00  0.00    -0.006 A 
ATOM      3  C   LIG    1      157.312 189.766 160.967  0.00  0.00    +0.071 A 
ATOM      4  C   LIG    1      156.148 189.082 161.270  0.00  0.00    +0.033 A 
ATOM      5  C   LIG    1      155.038 189.794 161.644  0.00  0.00    +0.075 A 
ATOM      6  C   LIG    1      155.092 191.191 161.717  0.00  0.00    +0.016 A 
ATOM      7  C   LIG    1      156.260 191.856 161.413  0.00  0.00    -0.002 A 
ENDROOT
BRANCH   5   8
ATOM      8  N   LIG    1      153.833 189.141 161.960  0.00  0.00    -0.175 NA
ATOM      9  C   LIG    1      152.637 189.229 161.222  0.00  0.00    +0.269 C 
ATOM     10  O   LIG    1      152.596 189.934 160.199  0.00  0.00    -0.268 OA
BRANCH   9  11
ATOM     11  C   LIG    1      151.449 188.489 161.669  0.00  0.00    +0.055 A 
ATOM     12  C   LIG    1      150.825 187.573 160.851  0.00  0.00    +0.004 A 
ATOM     13  C   LIG    1      149.695 186.866 161.272  0.00  0.00    -0.003 A 
ATOM     14  C   LIG    1      149.170 187.070 162.524  0.00  0.00    -0.006 A 
ATOM     15  C   LIG    1      149.785 187.983 163.346  0.00  0.00    -0.003 A 
ATOM     16  C   LIG    1      150.917 188.690 162.924  0.00  0.00    +0.004 A 
BRANCH  14  17
ATOM     17  C   LIG    1      147.977 186.324 162.965  0.00  0.00    +0.099 C 
BRANCH  17  18
ATOM     18  N   LIG    1      148.209 184.939 163.224  0.00  0.00    -0.267 NA
ATOM     19  C   LIG    1      148.775 184.675 164.532  0.00  0.00    +0.090 C 
ATOM     20  C   LIG    1      147.816 185.076 165.634  0.00  0.00    +0.090 C 
ATOM     21  N   LIG    1      146.437 184.812 165.235  0.00  0.00    -0.269 NA
ATOM     22  C   LIG    1      145.634 184.418 166.353  0.00  0.00    +0.090 C 
ATOM     23  C   LIG    1      146.396 183.727 164.251  0.00  0.00    +0.090 C 
ATOM     24  C   LIG    1      146.991 184.220 162.972  0.00  0.00    +0.090 C 
ENDBRANCH  17  18
ENDBRANCH  14  17
ENDBRANCH   9  11
ENDBRANCH   5   8
BRANCH   3  25
ATOM     25  N   LIG    1      158.481 189.119 160.579  0.00  0.00    -0.178 NA
BRANCH  25  26
ATOM     26  C   LIG    1      158.763 188.371 159.435  0.00  0.00    +0.241 A 
ATOM     27  N   LIG    1      158.992 187.041 159.603  0.00  0.00    -0.212 NA
ATOM     28  C   LIG    1      159.272 186.186 158.628  0.00  0.00    +0.087 A 
ATOM     29  C   LIG    1      159.340 186.683 157.322  0.00  0.00    +0.040 A 
ATOM     30  C   LIG    1      159.110 188.030 157.145  0.00  0.00    +0.103 A 
ATOM     31  N   LIG    1      158.832 188.823 158.193  0.00  0.00    -0.211 NA
BRANCH  28  32
ATOM     32  C   LIG    1      159.511 184.765 158.851  0.00  0.00    +0.037 A 
ATOM     33  C   LIG    1      160.545 184.135 158.195  0.00  0.00    +0.100 A 
ATOM     34  N   LIG    1      160.782 182.804 158.395  0.00  0.00    -0.242 NA
ATOM     35  C   LIG    1      160.035 182.080 159.216  0.00  0.00    +0.099 A 
ATOM     36  C   LIG    1      158.984 182.655 159.903  0.00  0.00    +0.021 A 
ATOM     37  C   LIG    1      158.736 184.015 159.704  0.00  0.00    +0.005 A 
ENDBRANCH  28  32
ENDBRANCH  25  26
ENDBRANCH   3  25
TORSDOF 7
