REMARK VINA RESULT:      -6.1     63.742     66.055
REMARK  Name = ZINC000049409419
REMARK                            x       y       z     vdW  Elec       q    Type
REMARK                         _______ _______ _______ _____ _____    ______ ____
ROOT
ATOM      1  N   LIG    1      197.289  91.887 157.580  0.00  0.00    -0.282 N 
ATOM      2  H   LIG    1      196.765  91.285 156.922  0.00  0.00    +0.155 HD
ATOM      3  C   LIG    1      196.592  92.946 158.105  0.00  0.00    +0.226 C 
ATOM      4  O   LIG    1      197.050  93.613 159.007  0.00  0.00    -0.275 OA
ENDROOT
BRANCH   1   9
ATOM      5  C   LIG    1      201.050  90.261 158.536  0.00  0.00    +0.142 A 
ATOM      6  C   LIG    1      200.993  91.575 158.039  0.00  0.00    +0.084 A 
ATOM      7 CL   LIG    1      202.437  92.509 157.820  0.00  0.00    -0.080 Cl
ATOM      8  C   LIG    1      199.762  92.144 157.712  0.00  0.00    +0.050 A 
ATOM      9  C   LIG    1      198.593  91.398 157.887  0.00  0.00    +0.077 A 
ATOM     10  C   LIG    1      198.658  90.082 158.372  0.00  0.00    +0.145 A 
ATOM     11  C   LIG    1      199.886  89.510 158.702  0.00  0.00    +0.094 A 
BRANCH   5  13
ATOM     12  C   LIG    1      203.017  89.930 160.089  0.00  0.00    +0.277 C 
ATOM     13  O   LIG    1      202.296  89.728 158.854  0.00  0.00    -0.494 OA
ENDBRANCH   5  13
BRANCH  10  14
ATOM     14  O   LIG    1      197.463  89.371 158.504  0.00  0.00    -0.493 OA
ATOM     15  C   LIG    1      196.896  88.911 159.752  0.00  0.00    +0.277 C 
ENDBRANCH  10  14
ENDBRANCH   1   9
BRANCH   3  16
ATOM     16  C   LIG    1      195.229  93.230 157.529  0.00  0.00    +0.193 C 
BRANCH  16  17
ATOM     17  C   LIG    1      194.778  91.918 156.949  0.00  0.00    +0.226 A 
ATOM     18  O   LIG    1      194.670  91.759 155.661  0.00  0.00    -0.419 OA
ATOM     19  C   LIG    1      194.248  90.524 155.490  0.00  0.00    +0.255 A 
ATOM     20  N   LIG    1      194.099  89.942 156.638  0.00  0.00    -0.107 NA
ATOM     21  N   LIG    1      194.446  90.861 157.587  0.00  0.00    -0.112 NA
BRANCH  19  22
ATOM     22  C   LIG    1      194.021  90.003 154.150  0.00  0.00    +0.079 A 
ATOM     23  C   LIG    1      192.824  89.716 153.516  0.00  0.00    -0.031 A 
ATOM     24  C   LIG    1      191.456  89.905 154.139  0.00  0.00    +0.045 C 
ATOM     25  C   LIG    1      193.000  89.221 152.215  0.00  0.00    +0.012 A 
ATOM     26  C   LIG    1      194.312  89.128 151.848  0.00  0.00    +0.046 A 
ATOM     27  S   LIG    1      195.365  89.650 153.107  0.00  0.00    -0.092 S 
ENDBRANCH  19  22
ENDBRANCH  16  17
ENDBRANCH   3  16
TORSDOF 6
