REMARK VINA RESULT:      -6.4      3.643      5.139
REMARK  Name = ZINC000049483930
REMARK                            x       y       z     vdW  Elec       q    Type
REMARK                         _______ _______ _______ _____ _____    ______ ____
ROOT
ATOM      1  O   LIG    1      195.754  79.133 160.013  0.00  0.00    -0.275 OA
ATOM      2  C   LIG    1      195.173  79.773 160.866  0.00  0.00    +0.226 C 
ATOM      3  N   LIG    1      195.685  80.982 161.224  0.00  0.00    -0.299 N 
ATOM      4  C   LIG    1      195.212  82.034 162.125  0.00  0.00    +0.122 C 
ATOM      5  C   LIG    1      196.480  82.830 161.687  0.00  0.00    +0.112 C 
ATOM      6  C   LIG    1      196.839  81.698 160.678  0.00  0.00    +0.122 C 
ENDROOT
BRANCH   5   7
ATOM      7  C   LIG    1      197.502  82.931 162.798  0.00  0.00    +0.234 A 
ATOM      8  O   LIG    1      198.335  83.951 162.865  0.00  0.00    -0.337 OA
ATOM      9  N   LIG    1      199.100  83.785 163.922  0.00  0.00    -0.056 NA
ATOM     10  C   LIG    1      198.707  82.680 164.457  0.00  0.00    +0.209 A 
ATOM     11  N   LIG    1      197.691  82.117 163.754  0.00  0.00    -0.191 NA
BRANCH  10  12
ATOM     12  C   LIG    1      199.282  82.108 165.669  0.00  0.00    +0.060 A 
ATOM     13  S   LIG    1      199.984  80.518 165.689  0.00  0.00    -0.093 S 
ATOM     14  C   LIG    1      200.368  80.658 167.365  0.00  0.00    +0.046 A 
ATOM     15  C   LIG    1      199.977  81.863 167.875  0.00  0.00    +0.008 A 
ATOM     16  C   LIG    1      199.363  82.683 166.918  0.00  0.00    +0.019 A 
ENDBRANCH  10  12
ENDBRANCH   5   7
BRANCH   2  17
ATOM     17  C   LIG    1      193.896  79.282 161.514  0.00  0.00    +0.174 C 
BRANCH  17  18
ATOM     18  S   LIG    1      192.794  78.822 160.124  0.00  0.00    -0.058 S 
BRANCH  18  19
ATOM     19  C   LIG    1      191.997  80.331 159.825  0.00  0.00    +0.258 A 
ATOM     20  O   LIG    1      192.077  81.294 160.787  0.00  0.00    -0.431 OA
ATOM     21  C   LIG    1      191.382  82.321 160.280  0.00  0.00    +0.156 A 
ATOM     22  C   LIG    1      191.136  83.573 160.834  0.00  0.00    +0.048 A 
ATOM     23  C   LIG    1      190.376  84.471 160.090  0.00  0.00    +0.004 A 
ATOM     24  C   LIG    1      189.883  84.103 158.823  0.00  0.00    +0.002 A 
ATOM     25  C   LIG    1      190.148  82.841 158.297  0.00  0.00    +0.031 A 
ATOM     26  C   LIG    1      190.913  81.938 159.043  0.00  0.00    +0.110 A 
ATOM     27  N   LIG    1      191.315  80.657 158.771  0.00  0.00    -0.203 NA
ENDBRANCH  18  19
ENDBRANCH  17  18
ENDBRANCH   2  17
TORSDOF 5
