MODEL 1
REMARK VINA RESULT:      -7.3      0.000      0.000
REMARK  Name = ZINC000193545175
REMARK                            x       y       z     vdW  Elec       q    Type
REMARK                         _______ _______ _______ _____ _____    ______ ____
ROOT
ATOM      1  C   LIG    1      169.233 151.243 146.828  0.00  0.00    +0.171 A 
ATOM      2  N   LIG    1      169.288 149.911 146.515  0.00  0.00    -0.204 NA
ATOM      3  C   LIG    1      170.109 149.759 145.536  0.00  0.00    +0.185 A 
ATOM      4  S   LIG    1      170.826 151.213 144.982  0.00  0.00    +0.050 S 
ATOM      5  N   LIG    1      169.981 152.049 146.118  0.00  0.00    -0.187 NA
ENDROOT
BRANCH   1   8
ATOM      6  C   LIG    1      167.520 153.575 149.257  0.00  0.00    +0.121 A 
ATOM      7  C   LIG    1      168.338 153.111 148.229  0.00  0.00    +0.057 A 
ATOM      8  C   LIG    1      168.375 151.743 147.912  0.00  0.00    +0.023 A 
ATOM      9  C   LIG    1      167.566 150.870 148.664  0.00  0.00    +0.012 A 
ATOM     10  C   LIG    1      166.753 151.343 149.689  0.00  0.00    +0.004 A 
ATOM     11  C   LIG    1      166.726 152.700 149.990  0.00  0.00    +0.045 A 
BRANCH   6  13
ATOM     12  C   LIG    1      166.442 155.508 150.430  0.00  0.00    +0.277 C 
ATOM     13  O   LIG    1      167.458 154.908 149.594  0.00  0.00    -0.495 OA
ENDBRANCH   6  13
ENDBRANCH   1   8
BRANCH   3  14
ATOM     14  N   LIG    1      170.328 148.472 145.043  0.00  0.00    -0.259 N 
ATOM     15  H   LIG    1      169.657 148.170 144.331  0.00  0.00    +0.157 HD
ATOM     16  C   LIG    1      171.318 147.586 145.373  0.00  0.00    +0.254 C 
ATOM     17  O   LIG    1      172.143 147.934 146.204  0.00  0.00    -0.270 OA
BRANCH  16  18
ATOM     18  C   LIG    1      171.364 146.282 144.728  0.00  0.00    +0.089 A 
ATOM     19  C   LIG    1      171.496 145.032 145.272  0.00  0.00    +0.182 A 
ATOM     20 BR   LIG    1      171.683 144.401 147.044  0.00  0.00    -0.008 Br
ATOM     21  O   LIG    1      171.487 144.105 144.291  0.00  0.00    -0.456 OA
ATOM     22  C   LIG    1      171.352 144.753 143.110  0.00  0.00    +0.197 A 
ATOM     23  C   LIG    1      171.275 146.081 143.337  0.00  0.00    +0.055 A 
ENDBRANCH  16  18
ENDBRANCH   3  14
TORSDOF 4
ENDMDL
MODEL 2
REMARK VINA RESULT:      -7.3      2.930      8.591
REMARK  Name = ZINC000193545175
REMARK                            x       y       z     vdW  Elec       q    Type
REMARK                         _______ _______ _______ _____ _____    ______ ____
ROOT
ATOM      1  C   LIG    1      169.987 149.983 145.925  0.00  0.00    +0.171 A 
ATOM      2  N   LIG    1      169.142 150.463 146.891  0.00  0.00    -0.204 NA
ATOM      3  C   LIG    1      169.587 151.603 147.288  0.00  0.00    +0.185 A 
ATOM      4  S   LIG    1      171.024 152.113 146.505  0.00  0.00    +0.050 S 
ATOM      5  N   LIG    1      171.014 150.732 145.613  0.00  0.00    -0.187 NA
ENDROOT
BRANCH   1   8
ATOM      6  C   LIG    1      170.577 146.727 144.104  0.00  0.00    +0.121 A 
ATOM      7  C   LIG    1      170.812 147.954 144.721  0.00  0.00    +0.057 A 
ATOM      8  C   LIG    1      169.750 148.689 145.270  0.00  0.00    +0.023 A 
ATOM      9  C   LIG    1      168.454 148.147 145.175  0.00  0.00    +0.012 A 
ATOM     10  C   LIG    1      168.229 146.920 144.556  0.00  0.00    +0.004 A 
ATOM     11  C   LIG    1      169.291 146.205 144.018  0.00  0.00    +0.045 A 
BRANCH   6  13
ATOM     12  C   LIG    1      171.472 144.610 143.107  0.00  0.00    +0.277 C 
ATOM     13  O   LIG    1      171.594 145.979 143.554  0.00  0.00    -0.495 OA
ENDBRANCH   6  13
ENDBRANCH   1   8
BRANCH   3  14
ATOM     14  N   LIG    1      168.881 152.287 148.278  0.00  0.00    -0.259 N 
ATOM     15  H   LIG    1      169.260 152.178 149.223  0.00  0.00    +0.157 HD
ATOM     16  C   LIG    1      167.776 153.083 148.144  0.00  0.00    +0.254 C 
ATOM     17  O   LIG    1      167.320 153.246 147.023  0.00  0.00    -0.270 OA
BRANCH  16  18
ATOM     18  C   LIG    1      167.193 153.711 149.321  0.00  0.00    +0.089 A 
ATOM     19  C   LIG    1      165.917 153.646 149.816  0.00  0.00    +0.182 A 
ATOM     20 BR   LIG    1      164.347 152.762 149.244  0.00  0.00    -0.008 Br
ATOM     21  O   LIG    1      165.825 154.390 150.938  0.00  0.00    -0.456 OA
ATOM     22  C   LIG    1      167.040 154.939 151.171  0.00  0.00    +0.197 A 
ATOM     23  C   LIG    1      167.898 154.548 150.206  0.00  0.00    +0.055 A 
ENDBRANCH  16  18
ENDBRANCH   3  14
TORSDOF 4
ENDMDL
MODEL 3
REMARK VINA RESULT:      -7.1      3.402      3.622
REMARK  Name = ZINC000193545175
REMARK                            x       y       z     vdW  Elec       q    Type
REMARK                         _______ _______ _______ _____ _____    ______ ____
ROOT
ATOM      1  C   LIG    1      168.284 149.873 145.790  0.00  0.00    +0.171 A 
ATOM      2  N   LIG    1      167.659 148.672 145.578  0.00  0.00    -0.204 NA
ATOM      3  C   LIG    1      168.531 147.835 145.137  0.00  0.00    +0.185 A 
ATOM      4  S   LIG    1      170.111 148.478 144.974  0.00  0.00    +0.050 S 
ATOM      5  N   LIG    1      169.564 149.929 145.522  0.00  0.00    -0.187 NA
ENDROOT
BRANCH   1   8
ATOM      6  C   LIG    1      167.410 152.985 147.743  0.00  0.00    +0.121 A 
ATOM      7  C   LIG    1      168.113 151.879 147.272  0.00  0.00    +0.057 A 
ATOM      8  C   LIG    1      167.550 151.042 146.295  0.00  0.00    +0.023 A 
ATOM      9  C   LIG    1      166.265 151.359 145.817  0.00  0.00    +0.012 A 
ATOM     10  C   LIG    1      165.570 152.467 146.294  0.00  0.00    +0.004 A 
ATOM     11  C   LIG    1      166.142 153.286 147.260  0.00  0.00    +0.045 A 
BRANCH   6  13
ATOM     12  C   LIG    1      168.378 153.419 150.013  0.00  0.00    +0.277 C 
ATOM     13  O   LIG    1      167.931 153.827 148.700  0.00  0.00    -0.495 OA
ENDBRANCH   6  13
ENDBRANCH   1   8
BRANCH   3  14
ATOM     14  N   LIG    1      168.120 146.533 144.849  0.00  0.00    -0.259 N 
ATOM     15  H   LIG    1      167.891 146.368 143.865  0.00  0.00    +0.157 HD
ATOM     16  C   LIG    1      168.002 145.466 145.698  0.00  0.00    +0.254 C 
ATOM     17  O   LIG    1      168.292 145.634 146.872  0.00  0.00    -0.270 OA
BRANCH  16  18
ATOM     18  C   LIG    1      167.553 144.181 145.182  0.00  0.00    +0.089 A 
ATOM     19  C   LIG    1      166.368 143.520 145.369  0.00  0.00    +0.182 A 
ATOM     20 BR   LIG    1      164.800 143.918 146.346  0.00  0.00    -0.008 Br
ATOM     21  O   LIG    1      166.387 142.351 144.695  0.00  0.00    -0.456 OA
ATOM     22  C   LIG    1      167.585 142.251 144.072  0.00  0.00    +0.197 A 
ATOM     23  C   LIG    1      168.322 143.347 144.347  0.00  0.00    +0.055 A 
ENDBRANCH  16  18
ENDBRANCH   3  14
TORSDOF 4
ENDMDL
MODEL 4
REMARK VINA RESULT:      -6.9      3.231      8.401
REMARK  Name = ZINC000193545175
REMARK                            x       y       z     vdW  Elec       q    Type
REMARK                         _______ _______ _______ _____ _____    ______ ____
ROOT
ATOM      1  C   LIG    1      169.809 149.467 145.772  0.00  0.00    +0.171 A 
ATOM      2  N   LIG    1      168.746 149.804 146.568  0.00  0.00    -0.204 NA
ATOM      3  C   LIG    1      168.946 150.989 147.028  0.00  0.00    +0.185 A 
ATOM      4  S   LIG    1      170.410 151.713 146.509  0.00  0.00    +0.050 S 
ATOM      5  N   LIG    1      170.757 150.359 145.642  0.00  0.00    -0.187 NA
ENDROOT
BRANCH   1   8
ATOM      6  C   LIG    1      168.881 146.028 144.514  0.00  0.00    +0.121 A 
ATOM      7  C   LIG    1      168.805 147.260 145.159  0.00  0.00    +0.057 A 
ATOM      8  C   LIG    1      169.879 148.163 145.096  0.00  0.00    +0.023 A 
ATOM      9  C   LIG    1      171.020 147.781 144.366  0.00  0.00    +0.012 A 
ATOM     10  C   LIG    1      171.086 146.547 143.724  0.00  0.00    +0.004 A 
ATOM     11  C   LIG    1      170.015 145.665 143.796  0.00  0.00    +0.045 A 
BRANCH   6  13
ATOM     12  C   LIG    1      167.518 144.286 145.690  0.00  0.00    +0.277 C 
ATOM     13  O   LIG    1      167.848 145.118 144.554  0.00  0.00    -0.495 OA
ENDBRANCH   6  13
ENDBRANCH   1   8
BRANCH   3  14
ATOM     14  N   LIG    1      167.985 151.549 147.871  0.00  0.00    -0.259 N 
ATOM     15  H   LIG    1      168.142 151.377 148.868  0.00  0.00    +0.157 HD
ATOM     16  C   LIG    1      166.888 152.298 147.539  0.00  0.00    +0.254 C 
ATOM     17  O   LIG    1      166.693 152.535 146.357  0.00  0.00    -0.270 OA
BRANCH  16  18
ATOM     18  C   LIG    1      166.008 152.791 148.588  0.00  0.00    +0.089 A 
ATOM     19  C   LIG    1      166.287 153.560 149.686  0.00  0.00    +0.182 A 
ATOM     20 BR   LIG    1      167.876 154.324 150.365  0.00  0.00    -0.008 Br
ATOM     21  O   LIG    1      165.156 153.778 150.389  0.00  0.00    -0.456 OA
ATOM     22  C   LIG    1      164.142 153.149 149.749  0.00  0.00    +0.197 A 
ATOM     23  C   LIG    1      164.624 152.536 148.648  0.00  0.00    +0.055 A 
ENDBRANCH  16  18
ENDBRANCH   3  14
TORSDOF 4
ENDMDL
MODEL 5
REMARK VINA RESULT:      -6.6      4.312      5.837
REMARK  Name = ZINC000193545175
REMARK                            x       y       z     vdW  Elec       q    Type
REMARK                         _______ _______ _______ _____ _____    ______ ____
ROOT
ATOM      1  C   LIG    1      170.045 146.735 144.955  0.00  0.00    +0.171 A 
ATOM      2  N   LIG    1      170.396 146.126 146.130  0.00  0.00    -0.204 NA
ATOM      3  C   LIG    1      170.749 144.917 145.870  0.00  0.00    +0.185 A 
ATOM      4  S   LIG    1      170.666 144.497 144.211  0.00  0.00    +0.050 S 
ATOM      5  N   LIG    1      170.135 146.014 143.866  0.00  0.00    -0.187 NA
ENDROOT
BRANCH   1   8
ATOM      6  C   LIG    1      170.001 150.498 145.274  0.00  0.00    +0.121 A 
ATOM      7  C   LIG    1      170.441 149.177 145.314  0.00  0.00    +0.057 A 
ATOM      8  C   LIG    1      169.591 148.132 144.918  0.00  0.00    +0.023 A 
ATOM      9  C   LIG    1      168.293 148.466 144.487  0.00  0.00    +0.012 A 
ATOM     10  C   LIG    1      167.862 149.789 144.451  0.00  0.00    +0.004 A 
ATOM     11  C   LIG    1      168.717 150.812 144.845  0.00  0.00    +0.045 A 
BRANCH   6  13
ATOM     12  C   LIG    1      171.985 151.433 146.486  0.00  0.00    +0.277 C 
ATOM     13  O   LIG    1      170.808 151.548 145.654  0.00  0.00    -0.495 OA
ENDBRANCH   6  13
ENDBRANCH   1   8
BRANCH   3  14
ATOM     14  N   LIG    1      171.152 144.097 146.925  0.00  0.00    -0.259 N 
ATOM     15  H   LIG    1      171.973 144.433 147.435  0.00  0.00    +0.157 HD
ATOM     16  C   LIG    1      170.588 142.930 147.365  0.00  0.00    +0.254 C 
ATOM     17  O   LIG    1      169.593 142.521 146.785  0.00  0.00    -0.270 OA
BRANCH  16  18
ATOM     18  C   LIG    1      171.173 142.228 148.498  0.00  0.00    +0.089 A 
ATOM     19  C   LIG    1      170.575 141.677 149.600  0.00  0.00    +0.182 A 
ATOM     20 BR   LIG    1      168.780 141.560 150.180  0.00  0.00    -0.008 Br
ATOM     21  O   LIG    1      171.511 141.122 150.397  0.00  0.00    -0.456 OA
ATOM     22  C   LIG    1      172.718 141.315 149.815  0.00  0.00    +0.197 A 
ATOM     23  C   LIG    1      172.551 141.987 148.657  0.00  0.00    +0.055 A 
ENDBRANCH  16  18
ENDBRANCH   3  14
TORSDOF 4
ENDMDL
MODEL 6
REMARK VINA RESULT:      -6.6      4.498      8.153
REMARK  Name = ZINC000193545175
REMARK                            x       y       z     vdW  Elec       q    Type
REMARK                         _______ _______ _______ _____ _____    ______ ____
ROOT
ATOM      1  C   LIG    1      170.472 143.924 146.979  0.00  0.00    +0.171 A 
ATOM      2  N   LIG    1      170.162 145.255 147.075  0.00  0.00    -0.204 NA
ATOM      3  C   LIG    1      169.815 145.675 145.910  0.00  0.00    +0.185 A 
ATOM      4  S   LIG    1      169.855 144.478 144.685  0.00  0.00    +0.050 S 
ATOM      5  N   LIG    1      170.359 143.376 145.796  0.00  0.00    -0.187 NA
ENDROOT
BRANCH   1   8
ATOM      6  C   LIG    1      170.590 142.426 150.444  0.00  0.00    +0.121 A 
ATOM      7  C   LIG    1      170.167 143.165 149.341  0.00  0.00    +0.057 A 
ATOM      8  C   LIG    1      170.909 143.151 148.149  0.00  0.00    +0.023 A 
ATOM      9  C   LIG    1      172.082 142.372 148.112  0.00  0.00    +0.012 A 
ATOM     10  C   LIG    1      172.496 141.638 149.219  0.00  0.00    +0.004 A 
ATOM     11  C   LIG    1      171.750 141.662 150.392  0.00  0.00    +0.045 A 
BRANCH   6  13
ATOM     12  C   LIG    1      168.736 143.241 151.918  0.00  0.00    +0.277 C 
ATOM     13  O   LIG    1      169.887 142.417 151.628  0.00  0.00    -0.495 OA
ENDBRANCH   6  13
ENDBRANCH   1   8
BRANCH   3  14
ATOM     14  N   LIG    1      169.452 147.015 145.764  0.00  0.00    -0.259 N 
ATOM     15  H   LIG    1      168.504 147.236 146.082  0.00  0.00    +0.157 HD
ATOM     16  C   LIG    1      170.196 148.054 145.272  0.00  0.00    +0.254 C 
ATOM     17  O   LIG    1      171.337 147.818 144.907  0.00  0.00    -0.270 OA
BRANCH  16  18
ATOM     18  C   LIG    1      169.618 149.388 145.210  0.00  0.00    +0.089 A 
ATOM     19  C   LIG    1      170.114 150.587 145.650  0.00  0.00    +0.182 A 
ATOM     20 BR   LIG    1      171.715 151.086 146.521  0.00  0.00    -0.008 Br
ATOM     21  O   LIG    1      169.233 151.572 145.380  0.00  0.00    -0.456 OA
ATOM     22  C   LIG    1      168.162 151.013 144.767  0.00  0.00    +0.197 A 
ATOM     23  C   LIG    1      168.361 149.684 144.648  0.00  0.00    +0.055 A 
ENDBRANCH  16  18
ENDBRANCH   3  14
TORSDOF 4
ENDMDL
MODEL 7
REMARK VINA RESULT:      -6.5     26.374     29.410
REMARK  Name = ZINC000193545175
REMARK                            x       y       z     vdW  Elec       q    Type
REMARK                         _______ _______ _______ _____ _____    ______ ____
ROOT
ATOM      1  C   LIG    1      145.602 167.263 148.231  0.00  0.00    +0.171 A 
ATOM      2  N   LIG    1      145.850 166.531 149.361  0.00  0.00    -0.204 NA
ATOM      3  C   LIG    1      146.260 165.364 149.006  0.00  0.00    +0.185 A 
ATOM      4  S   LIG    1      146.353 165.134 147.310  0.00  0.00    +0.050 S 
ATOM      5  N   LIG    1      145.818 166.672 147.083  0.00  0.00    -0.187 NA
ENDROOT
BRANCH   1   8
ATOM      6  C   LIG    1      145.514 171.039 148.160  0.00  0.00    +0.121 A 
ATOM      7  C   LIG    1      145.986 169.730 148.090  0.00  0.00    +0.057 A 
ATOM      8  C   LIG    1      145.116 168.648 148.304  0.00  0.00    +0.023 A 
ATOM      9  C   LIG    1      143.767 168.934 148.588  0.00  0.00    +0.012 A 
ATOM     10  C   LIG    1      143.305 170.245 148.656  0.00  0.00    +0.004 A 
ATOM     11  C   LIG    1      144.179 171.304 148.442  0.00  0.00    +0.045 A 
BRANCH   6  13
ATOM     12  C   LIG    1      145.901 173.429 147.518  0.00  0.00    +0.277 C 
ATOM     13  O   LIG    1      146.339 172.123 147.957  0.00  0.00    -0.495 OA
ENDBRANCH   6  13
ENDBRANCH   1   8
BRANCH   3  14
ATOM     14  N   LIG    1      146.578 164.437 149.999  0.00  0.00    -0.259 N 
ATOM     15  H   LIG    1      147.531 164.514 150.363  0.00  0.00    +0.157 HD
ATOM     16  C   LIG    1      145.783 163.466 150.547  0.00  0.00    +0.254 C 
ATOM     17  O   LIG    1      144.634 163.370 150.144  0.00  0.00    -0.270 OA
BRANCH  16  18
ATOM     18  C   LIG    1      146.319 162.598 151.586  0.00  0.00    +0.089 A 
ATOM     19  C   LIG    1      147.238 161.586 151.503  0.00  0.00    +0.182 A 
ATOM     20 BR   LIG    1      148.218 160.837 150.071  0.00  0.00    -0.008 Br
ATOM     21  O   LIG    1      147.439 161.051 152.726  0.00  0.00    -0.456 OA
ATOM     22  C   LIG    1      146.648 161.714 153.602  0.00  0.00    +0.197 A 
ATOM     23  C   LIG    1      145.951 162.663 152.943  0.00  0.00    +0.055 A 
ENDBRANCH  16  18
ENDBRANCH   3  14
TORSDOF 4
ENDMDL
MODEL 8
REMARK VINA RESULT:      -6.5      5.725      6.256
REMARK  Name = ZINC000193545175
REMARK                            x       y       z     vdW  Elec       q    Type
REMARK                         _______ _______ _______ _____ _____    ______ ____
ROOT
ATOM      1  C   LIG    1      165.532 150.414 149.959  0.00  0.00    +0.171 A 
ATOM      2  N   LIG    1      165.824 149.139 149.554  0.00  0.00    -0.204 NA
ATOM      3  C   LIG    1      165.407 148.322 150.457  0.00  0.00    +0.185 A 
ATOM      4  S   LIG    1      164.659 149.076 151.802  0.00  0.00    +0.050 S 
ATOM      5  N   LIG    1      164.923 150.544 151.110  0.00  0.00    -0.187 NA
ENDROOT
BRANCH   1   8
ATOM      6  C   LIG    1      166.605 153.892 148.947  0.00  0.00    +0.121 A 
ATOM      7  C   LIG    1      166.270 152.792 149.734  0.00  0.00    +0.057 A 
ATOM      8  C   LIG    1      165.885 151.581 149.137  0.00  0.00    +0.023 A 
ATOM      9  C   LIG    1      165.849 151.521 147.731  0.00  0.00    +0.012 A 
ATOM     10  C   LIG    1      166.185 152.625 146.953  0.00  0.00    +0.004 A 
ATOM     11  C   LIG    1      166.565 153.816 147.559  0.00  0.00    +0.045 A 
BRANCH   6  13
ATOM     12  C   LIG    1      166.324 155.751 150.602  0.00  0.00    +0.277 C 
ATOM     13  O   LIG    1      166.987 155.094 149.498  0.00  0.00    -0.495 OA
ENDBRANCH   6  13
ENDBRANCH   1   8
BRANCH   3  14
ATOM     14  N   LIG    1      165.597 146.954 150.259  0.00  0.00    -0.259 N 
ATOM     15  H   LIG    1      166.448 146.577 150.685  0.00  0.00    +0.157 HD
ATOM     16  C   LIG    1      164.795 146.068 149.591  0.00  0.00    +0.254 C 
ATOM     17  O   LIG    1      163.763 146.491 149.094  0.00  0.00    -0.270 OA
BRANCH  16  18
ATOM     18  C   LIG    1      165.184 144.667 149.505  0.00  0.00    +0.089 A 
ATOM     19  C   LIG    1      165.200 143.820 148.429  0.00  0.00    +0.182 A 
ATOM     20 BR   LIG    1      164.742 144.028 146.608  0.00  0.00    -0.008 Br
ATOM     21  O   LIG    1      165.638 142.603 148.814  0.00  0.00    -0.456 OA
ATOM     22  C   LIG    1      165.905 142.659 150.141  0.00  0.00    +0.197 A 
ATOM     23  C   LIG    1      165.639 143.901 150.596  0.00  0.00    +0.055 A 
ENDBRANCH  16  18
ENDBRANCH   3  14
TORSDOF 4
ENDMDL
MODEL 9
REMARK VINA RESULT:      -6.4     66.524     67.878
REMARK  Name = ZINC000193545175
REMARK                            x       y       z     vdW  Elec       q    Type
REMARK                         _______ _______ _______ _____ _____    ______ ____
ROOT
ATOM      1  C   LIG    1      193.077 101.166 188.456  0.00  0.00    +0.171 A 
ATOM      2  N   LIG    1      191.769 101.571 188.497  0.00  0.00    -0.204 NA
ATOM      3  C   LIG    1      191.258 101.179 189.611  0.00  0.00    +0.185 A 
ATOM      4  S   LIG    1      192.343 100.321 190.623  0.00  0.00    +0.050 S 
ATOM      5  N   LIG    1      193.523 100.504 189.493  0.00  0.00    -0.187 NA
ENDROOT
BRANCH   1   8
ATOM      6  C   LIG    1      195.396 100.722 185.508  0.00  0.00    +0.121 A 
ATOM      7  C   LIG    1      194.583 100.431 186.601  0.00  0.00    +0.057 A 
ATOM      8  C   LIG    1      193.938 101.462 187.302  0.00  0.00    +0.023 A 
ATOM      9  C   LIG    1      194.141 102.785 186.865  0.00  0.00    +0.012 A 
ATOM     10  C   LIG    1      194.955 103.066 185.771  0.00  0.00    +0.004 A 
ATOM     11  C   LIG    1      195.586 102.033 185.087  0.00  0.00    +0.045 A 
BRANCH   6  13
ATOM     12  C   LIG    1      195.763  99.381 183.424  0.00  0.00    +0.277 C 
ATOM     13  O   LIG    1      196.043  99.737 184.797  0.00  0.00    -0.495 OA
ENDBRANCH   6  13
ENDBRANCH   1   8
BRANCH   3  14
ATOM     14  N   LIG    1      189.922 101.482 189.875  0.00  0.00    -0.259 N 
ATOM     15  H   LIG    1      189.758 102.441 190.192  0.00  0.00    +0.157 HD
ATOM     16  C   LIG    1      188.822 100.676 189.752  0.00  0.00    +0.254 C 
ATOM     17  O   LIG    1      188.992  99.533 189.354  0.00  0.00    -0.270 OA
BRANCH  16  18
ATOM     18  C   LIG    1      187.505 101.198 190.082  0.00  0.00    +0.089 A 
ATOM     19  C   LIG    1      186.369 101.275 189.321  0.00  0.00    +0.182 A 
ATOM     20 BR   LIG    1      185.961 100.774 187.545  0.00  0.00    -0.008 Br
ATOM     21  O   LIG    1      185.374 101.836 190.041  0.00  0.00    -0.456 OA
ATOM     22  C   LIG    1      185.865 102.126 191.269  0.00  0.00    +0.197 A 
ATOM     23  C   LIG    1      187.160 101.752 191.330  0.00  0.00    +0.055 A 
ENDBRANCH  16  18
ENDBRANCH   3  14
TORSDOF 4
ENDMDL
