REMARK VINA RESULT:      -7.2      3.170      4.423
REMARK  Name = ZINC000000622958
REMARK                            x       y       z     vdW  Elec       q    Type
REMARK                         _______ _______ _______ _____ _____    ______ ____
ROOT
ATOM      1  C   LIG    1      166.679 143.678 147.473  0.00  0.00    +0.271 C 
ATOM      2  N   LIG    1      168.113 143.811 147.442  0.00  0.00    -0.157 N 
ATOM      3  C   LIG    1      168.526 144.579 146.459  0.00  0.00    +0.250 C 
ATOM      4  C   LIG    1      169.980 144.910 146.154  0.00  0.00    +0.124 C 
ATOM      5  C   LIG    1      170.208 146.395 146.524  0.00  0.00    +0.012 C 
ATOM      6  C   LIG    1      169.651 147.299 145.408  0.00  0.00    +0.004 C 
ATOM      7  C   LIG    1      168.117 147.319 145.249  0.00  0.00    +0.045 C 
ATOM      8  C   LIG    1      167.626 145.984 144.656  0.00  0.00    +0.236 C 
ATOM      9  N   LIG    1      167.508 145.049 145.785  0.00  0.00    -0.258 N 
ATOM     10  C   LIG    1      166.205 144.646 146.360  0.00  0.00    +0.323 C 
ENDROOT
BRANCH   1  11
ATOM     11  C   LIG    1      166.111 144.061 148.844  0.00  0.00    +0.034 A 
ATOM     12  C   LIG    1      165.972 145.419 149.181  0.00  0.00    +0.060 A 
ATOM     13  C   LIG    1      165.464 145.751 150.426  0.00  0.00    +0.167 A 
ATOM     14  O   LIG    1      165.269 146.993 150.916  0.00  0.00    -0.453 OA
ATOM     15  C   LIG    1      164.712 146.810 152.282  0.00  0.00    +0.466 C 
ATOM     16  O   LIG    1      164.626 145.343 152.470  0.00  0.00    -0.453 OA
ATOM     17  C   LIG    1      165.092 144.790 151.329  0.00  0.00    +0.166 A 
ATOM     18  C   LIG    1      165.211 143.442 151.032  0.00  0.00    +0.050 A 
ATOM     19  C   LIG    1      165.724 143.080 149.783  0.00  0.00    +0.014 A 
ENDBRANCH   1  11
BRANCH   2  20
ATOM     20  C   LIG    1      168.959 143.222 148.419  0.00  0.00    +0.124 A 
ATOM     21  C   LIG    1      169.432 141.924 148.230  0.00  0.00    +0.050 A 
ATOM     22  C   LIG    1      170.271 141.362 149.188  0.00  0.00    +0.024 A 
ATOM     23  C   LIG    1      170.630 142.099 150.321  0.00  0.00    +0.041 A 
ATOM     24 CL   LIG    1      171.675 141.397 151.508  0.00  0.00    -0.084 Cl
ATOM     25  C   LIG    1      170.149 143.400 150.500  0.00  0.00    +0.024 A 
ATOM     26  C   LIG    1      169.309 143.967 149.546  0.00  0.00    +0.050 A 
ENDBRANCH   2  20
BRANCH   1  27
ATOM     27  O   LIG    1      166.401 142.332 147.110  0.00  0.00    -0.347 OA
ATOM     28  H   LIG    1      166.910 141.754 147.697  0.00  0.00    +0.215 HD
ENDBRANCH   1  27
TORSDOF 3
