MODEL 1
REMARK VINA RESULT:      -6.5      0.000      0.000
REMARK  Name = ZINC000000622877
REMARK                            x       y       z     vdW  Elec       q    Type
REMARK                         _______ _______ _______ _____ _____    ______ ____
ROOT
ATOM      1  O   LIG    1      200.822 115.161 146.608  0.00  0.00    -0.274 OA
ATOM      2  C   LIG    1      201.140 114.357 145.746  0.00  0.00    +0.235 C 
ATOM      3  N   LIG    1      201.269 114.760 144.453  0.00  0.00    -0.219 N 
ATOM      4  H   LIG    1      201.711 114.146 143.749  0.00  0.00    +0.176 HD
ENDROOT
BRANCH   3   5
ATOM      5  N   LIG    1      201.041 116.161 144.051  0.00  0.00    -0.217 N 
ATOM      6  C   LIG    1      202.093 117.063 143.818  0.00  0.00    +0.079 A 
ATOM      7  C   LIG    1      201.615 118.218 143.289  0.00  0.00    +0.078 A 
ATOM      8  S   LIG    1      199.890 118.229 143.112  0.00  0.00    -0.033 S 
ATOM      9  C   LIG    1      199.778 116.621 143.757  0.00  0.00    +0.308 A 
ATOM     10  O   LIG    1      198.734 115.962 143.956  0.00  0.00    -0.258 OA
BRANCH   6  11
ATOM     11  C   LIG    1      203.476 116.733 144.131  0.00  0.00    +0.001 A 
ATOM     12  C   LIG    1      204.419 116.536 143.114  0.00  0.00    +0.010 A 
ATOM     13  C   LIG    1      205.737 116.213 143.418  0.00  0.00    +0.001 A 
ATOM     14  C   LIG    1      206.134 116.082 144.744  0.00  0.00    +0.000 A 
ATOM     15  C   LIG    1      205.209 116.276 145.765  0.00  0.00    +0.001 A 
ATOM     16  C   LIG    1      203.892 116.600 145.461  0.00  0.00    +0.010 A 
ENDBRANCH   6  11
ENDBRANCH   3   5
BRANCH   2  17
ATOM     17  C   LIG    1      201.412 112.900 146.068  0.00  0.00    +0.132 C 
BRANCH  17  18
ATOM     18  C   LIG    1      202.921 112.695 146.095  0.00  0.00    -0.039 A 
ATOM     19  C   LIG    1      203.580 112.148 144.994  0.00  0.00    +0.005 A 
ATOM     20  C   LIG    1      204.961 111.979 145.016  0.00  0.00    +0.015 A 
ATOM     21  C   LIG    1      205.695 112.355 146.138  0.00  0.00    +0.018 A 
ATOM     22 BR   LIG    1      207.573 112.127 146.164  0.00  0.00    -0.050 Br
ATOM     23  C   LIG    1      205.041 112.899 147.240  0.00  0.00    +0.015 A 
ATOM     24  C   LIG    1      203.660 113.066 147.220  0.00  0.00    +0.005 A 
ENDBRANCH  17  18
ENDBRANCH   2  17
TORSDOF 4
ENDMDL
MODEL 2
REMARK VINA RESULT:      -6.0     41.910     43.405
REMARK  Name = ZINC000000622877
REMARK                            x       y       z     vdW  Elec       q    Type
REMARK                         _______ _______ _______ _____ _____    ______ ____
ROOT
ATOM      1  O   LIG    1      179.063 149.169 151.935  0.00  0.00    -0.274 OA
ATOM      2  C   LIG    1      178.743 150.338 151.788  0.00  0.00    +0.235 C 
ATOM      3  N   LIG    1      178.798 151.197 152.842  0.00  0.00    -0.219 N 
ATOM      4  H   LIG    1      178.710 152.217 152.699  0.00  0.00    +0.176 HD
ENDROOT
BRANCH   3   5
ATOM      5  N   LIG    1      179.249 150.759 154.176  0.00  0.00    -0.217 N 
ATOM      6  C   LIG    1      180.587 150.856 154.594  0.00  0.00    +0.079 A 
ATOM      7  C   LIG    1      180.692 150.558 155.914  0.00  0.00    +0.078 A 
ATOM      8  S   LIG    1      179.180 150.119 156.640  0.00  0.00    -0.033 S 
ATOM      9  C   LIG    1      178.349 150.348 155.133  0.00  0.00    +0.308 A 
ATOM     10  O   LIG    1      177.133 150.162 154.910  0.00  0.00    -0.258 OA
BRANCH   6  11
ATOM     11  C   LIG    1      181.657 151.227 153.678  0.00  0.00    +0.001 A 
ATOM     12  C   LIG    1      182.071 152.560 153.556  0.00  0.00    +0.010 A 
ATOM     13  C   LIG    1      183.087 152.911 152.673  0.00  0.00    +0.001 A 
ATOM     14  C   LIG    1      183.706 151.935 151.900  0.00  0.00    +0.000 A 
ATOM     15  C   LIG    1      183.306 150.607 152.012  0.00  0.00    +0.001 A 
ATOM     16  C   LIG    1      182.291 150.257 152.894  0.00  0.00    +0.010 A 
ENDBRANCH   6  11
ENDBRANCH   3   5
BRANCH   2  17
ATOM     17  C   LIG    1      178.284 150.883 150.450  0.00  0.00    +0.132 C 
BRANCH  17  18
ATOM     18  C   LIG    1      179.515 151.336 149.676  0.00  0.00    -0.039 A 
ATOM     19  C   LIG    1      180.147 152.538 149.993  0.00  0.00    +0.005 A 
ATOM     20  C   LIG    1      181.283 152.939 149.296  0.00  0.00    +0.015 A 
ATOM     21  C   LIG    1      181.796 152.143 148.276  0.00  0.00    +0.018 A 
ATOM     22 BR   LIG    1      183.342 152.689 147.331  0.00  0.00    -0.050 Br
ATOM     23  C   LIG    1      181.167 150.944 147.954  0.00  0.00    +0.015 A 
ATOM     24  C   LIG    1      180.030 150.543 148.649  0.00  0.00    +0.005 A 
ENDBRANCH  17  18
ENDBRANCH   2  17
TORSDOF 4
ENDMDL
MODEL 3
REMARK VINA RESULT:      -5.9     27.430     29.624
REMARK  Name = ZINC000000622877
REMARK                            x       y       z     vdW  Elec       q    Type
REMARK                         _______ _______ _______ _____ _____    ______ ____
ROOT
ATOM      1  O   LIG    1      197.531  88.639 156.091  0.00  0.00    -0.274 OA
ATOM      2  C   LIG    1      196.741  88.645 157.022  0.00  0.00    +0.235 C 
ATOM      3  N   LIG    1      196.163  89.813 157.417  0.00  0.00    -0.219 N 
ATOM      4  H   LIG    1      195.363  89.812 158.072  0.00  0.00    +0.176 HD
ENDROOT
BRANCH   3   5
ATOM      5  N   LIG    1      196.456  91.090 156.742  0.00  0.00    -0.217 N 
ATOM      6  C   LIG    1      195.730  91.544 155.628  0.00  0.00    +0.079 A 
ATOM      7  C   LIG    1      196.083  92.818 155.321  0.00  0.00    +0.078 A 
ATOM      8  S   LIG    1      197.323  93.453 156.353  0.00  0.00    -0.033 S 
ATOM      9  C   LIG    1      197.383  91.970 157.254  0.00  0.00    +0.308 A 
ATOM     10  O   LIG    1      198.145  91.701 158.208  0.00  0.00    -0.258 OA
BRANCH   6  11
ATOM     11  C   LIG    1      194.754  90.703 154.949  0.00  0.00    +0.001 A 
ATOM     12  C   LIG    1      193.443  90.588 155.429  0.00  0.00    +0.010 A 
ATOM     13  C   LIG    1      192.517  89.777 154.782  0.00  0.00    +0.001 A 
ATOM     14  C   LIG    1      192.886  89.068 153.644  0.00  0.00    +0.000 A 
ATOM     15  C   LIG    1      194.185  89.173 153.155  0.00  0.00    +0.001 A 
ATOM     16  C   LIG    1      195.110  89.984 153.802  0.00  0.00    +0.010 A 
ENDBRANCH   6  11
ENDBRANCH   3   5
BRANCH   2  17
ATOM     17  C   LIG    1      196.364  87.378 157.764  0.00  0.00    +0.132 C 
BRANCH  17  18
ATOM     18  C   LIG    1      194.962  86.973 157.329  0.00  0.00    -0.039 A 
ATOM     19  C   LIG    1      193.893  87.058 158.220  0.00  0.00    +0.005 A 
ATOM     20  C   LIG    1      192.610  86.704 157.812  0.00  0.00    +0.015 A 
ATOM     21  C   LIG    1      192.385  86.263 156.511  0.00  0.00    +0.018 A 
ATOM     22 BR   LIG    1      190.640  85.785 155.959  0.00  0.00    -0.050 Br
ATOM     23  C   LIG    1      193.451  86.174 155.619  0.00  0.00    +0.015 A 
ATOM     24  C   LIG    1      194.734  86.526 156.027  0.00  0.00    +0.005 A 
ENDBRANCH  17  18
ENDBRANCH   2  17
TORSDOF 4
ENDMDL
MODEL 4
REMARK VINA RESULT:      -5.9      2.474      3.494
REMARK  Name = ZINC000000622877
REMARK                            x       y       z     vdW  Elec       q    Type
REMARK                         _______ _______ _______ _____ _____    ______ ____
ROOT
ATOM      1  O   LIG    1      203.477 113.759 147.298  0.00  0.00    -0.274 OA
ATOM      2  C   LIG    1      203.830 112.670 146.875  0.00  0.00    +0.235 C 
ATOM      3  N   LIG    1      203.504 112.292 145.609  0.00  0.00    -0.219 N 
ATOM      4  H   LIG    1      203.944 111.464 145.173  0.00  0.00    +0.176 HD
ENDROOT
BRANCH   3   5
ATOM      5  N   LIG    1      202.732 113.172 144.712  0.00  0.00    -0.217 N 
ATOM      6  C   LIG    1      203.342 114.085 143.836  0.00  0.00    +0.079 A 
ATOM      7  C   LIG    1      202.419 114.631 143.004  0.00  0.00    +0.078 A 
ATOM      8  S   LIG    1      200.806 114.071 143.309  0.00  0.00    -0.033 S 
ATOM      9  C   LIG    1      201.365 113.050 144.597  0.00  0.00    +0.308 A 
ATOM     10  O   LIG    1      200.667 112.321 145.335  0.00  0.00    -0.258 OA
BRANCH   6  11
ATOM     11  C   LIG    1      204.772 114.358 143.879  0.00  0.00    +0.001 A 
ATOM     12  C   LIG    1      205.269 115.508 144.506  0.00  0.00    +0.010 A 
ATOM     13  C   LIG    1      206.634 115.768 144.537  0.00  0.00    +0.001 A 
ATOM     14  C   LIG    1      207.526 114.882 143.942  0.00  0.00    +0.000 A 
ATOM     15  C   LIG    1      207.048 113.735 143.317  0.00  0.00    +0.001 A 
ATOM     16  C   LIG    1      205.683 113.475 143.286  0.00  0.00    +0.010 A 
ENDBRANCH   6  11
ENDBRANCH   3   5
BRANCH   2  17
ATOM     17  C   LIG    1      204.643 111.706 147.718  0.00  0.00    +0.132 C 
BRANCH  17  18
ATOM     18  C   LIG    1      206.079 111.728 147.211  0.00  0.00    -0.039 A 
ATOM     19  C   LIG    1      206.873 112.861 147.387  0.00  0.00    +0.005 A 
ATOM     20  C   LIG    1      208.190 112.871 146.939  0.00  0.00    +0.015 A 
ATOM     21  C   LIG    1      208.725 111.749 146.311  0.00  0.00    +0.018 A 
ATOM     22 BR   LIG    1      210.518 111.764 145.706  0.00  0.00    -0.050 Br
ATOM     23  C   LIG    1      207.935 110.617 146.132  0.00  0.00    +0.015 A 
ATOM     24  C   LIG    1      206.617 110.607 146.577  0.00  0.00    +0.005 A 
ENDBRANCH  17  18
ENDBRANCH   2  17
TORSDOF 4
ENDMDL
MODEL 5
REMARK VINA RESULT:      -5.9     52.591     54.394
REMARK  Name = ZINC000000622877
REMARK                            x       y       z     vdW  Elec       q    Type
REMARK                         _______ _______ _______ _____ _____    ______ ____
ROOT
ATOM      1  O   LIG    1      167.514 118.710 183.608  0.00  0.00    -0.274 OA
ATOM      2  C   LIG    1      166.932 118.858 182.545  0.00  0.00    +0.235 C 
ATOM      3  N   LIG    1      166.388 117.784 181.911  0.00  0.00    -0.219 N 
ATOM      4  H   LIG    1      165.740 117.911 181.116  0.00  0.00    +0.176 HD
ENDROOT
BRANCH   3   5
ATOM      5  N   LIG    1      166.471 116.425 182.478  0.00  0.00    -0.217 N 
ATOM      6  C   LIG    1      165.471 115.886 183.306  0.00  0.00    +0.079 A 
ATOM      7  C   LIG    1      165.707 114.570 183.535  0.00  0.00    +0.078 A 
ATOM      8  S   LIG    1      167.160 113.993 182.785  0.00  0.00    -0.033 S 
ATOM      9  C   LIG    1      167.481 115.563 182.117  0.00  0.00    +0.308 A 
ATOM     10  O   LIG    1      168.469 115.899 181.429  0.00  0.00    -0.258 OA
BRANCH   6  11
ATOM     11  C   LIG    1      164.369 116.694 183.810  0.00  0.00    +0.001 A 
ATOM     12  C   LIG    1      164.468 117.362 185.038  0.00  0.00    +0.010 A 
ATOM     13  C   LIG    1      163.409 118.125 185.520  0.00  0.00    +0.001 A 
ATOM     14  C   LIG    1      162.236 118.233 184.781  0.00  0.00    +0.000 A 
ATOM     15  C   LIG    1      162.124 117.577 183.559  0.00  0.00    +0.001 A 
ATOM     16  C   LIG    1      163.182 116.815 183.079  0.00  0.00    +0.010 A 
ENDBRANCH   6  11
ENDBRANCH   3   5
BRANCH   2  17
ATOM     17  C   LIG    1      166.780 120.220 181.895  0.00  0.00    +0.132 C 
BRANCH  17  18
ATOM     18  C   LIG    1      165.657 120.962 182.606  0.00  0.00    -0.039 A 
ATOM     19  C   LIG    1      165.913 122.160 183.273  0.00  0.00    +0.005 A 
ATOM     20  C   LIG    1      164.880 122.845 183.906  0.00  0.00    +0.015 A 
ATOM     21  C   LIG    1      163.584 122.338 183.879  0.00  0.00    +0.018 A 
ATOM     22 BR   LIG    1      162.181 123.273 184.738  0.00  0.00    -0.050 Br
ATOM     23  C   LIG    1      163.325 121.142 183.217  0.00  0.00    +0.015 A 
ATOM     24  C   LIG    1      164.357 120.455 182.585  0.00  0.00    +0.005 A 
ENDBRANCH  17  18
ENDBRANCH   2  17
TORSDOF 4
ENDMDL
MODEL 6
REMARK VINA RESULT:      -5.8     30.116     32.358
REMARK  Name = ZINC000000622877
REMARK                            x       y       z     vdW  Elec       q    Type
REMARK                         _______ _______ _______ _____ _____    ______ ____
ROOT
ATOM      1  O   LIG    1      191.232  89.592 158.758  0.00  0.00    -0.274 OA
ATOM      2  C   LIG    1      191.051  89.747 157.560  0.00  0.00    +0.235 C 
ATOM      3  N   LIG    1      191.999  89.344 156.670  0.00  0.00    -0.219 N 
ATOM      4  H   LIG    1      191.790  89.297 155.659  0.00  0.00    +0.176 HD
ENDROOT
BRANCH   3   5
ATOM      5  N   LIG    1      193.255  88.707 157.110  0.00  0.00    -0.217 N 
ATOM      6  C   LIG    1      193.429  87.314 157.138  0.00  0.00    +0.079 A 
ATOM      7  C   LIG    1      194.724  87.005 157.404  0.00  0.00    +0.078 A 
ATOM      8  S   LIG    1      195.721  88.399 157.662  0.00  0.00    -0.033 S 
ATOM      9  C   LIG    1      194.372  89.459 157.396  0.00  0.00    +0.308 A 
ATOM     10  O   LIG    1      194.373  90.707 157.463  0.00  0.00    -0.258 OA
BRANCH   6  11
ATOM     11  C   LIG    1      192.324  86.393 156.908  0.00  0.00    +0.001 A 
ATOM     12  C   LIG    1      191.525  85.946 157.968  0.00  0.00    +0.010 A 
ATOM     13  C   LIG    1      190.477  85.060 157.745  0.00  0.00    +0.001 A 
ATOM     14  C   LIG    1      190.209  84.608 156.457  0.00  0.00    +0.000 A 
ATOM     15  C   LIG    1      190.993  85.045 155.394  0.00  0.00    +0.001 A 
ATOM     16  C   LIG    1      192.041  85.930 155.618  0.00  0.00    +0.010 A 
ENDBRANCH   6  11
ENDBRANCH   3   5
BRANCH   2  17
ATOM     17  C   LIG    1      189.784  90.375 157.014  0.00  0.00    +0.132 C 
BRANCH  17  18
ATOM     18  C   LIG    1      189.097  89.352 156.119  0.00  0.00    -0.039 A 
ATOM     19  C   LIG    1      188.985  89.576 154.746  0.00  0.00    +0.005 A 
ATOM     20  C   LIG    1      188.373  88.631 153.929  0.00  0.00    +0.015 A 
ATOM     21  C   LIG    1      187.867  87.455 154.476  0.00  0.00    +0.018 A 
ATOM     22 BR   LIG    1      187.037  86.170 153.362  0.00  0.00    -0.050 Br
ATOM     23  C   LIG    1      187.974  87.229 155.845  0.00  0.00    +0.015 A 
ATOM     24  C   LIG    1      188.584  88.174 156.664  0.00  0.00    +0.005 A 
ENDBRANCH  17  18
ENDBRANCH   2  17
TORSDOF 4
ENDMDL
MODEL 7
REMARK VINA RESULT:      -5.7     22.992     24.768
REMARK  Name = ZINC000000622877
REMARK                            x       y       z     vdW  Elec       q    Type
REMARK                         _______ _______ _______ _____ _____    ______ ____
ROOT
ATOM      1  O   LIG    1      186.270 129.237 130.523  0.00  0.00    -0.274 OA
ATOM      2  C   LIG    1      186.659 129.499 131.650  0.00  0.00    +0.235 C 
ATOM      3  N   LIG    1      185.864 129.237 132.724  0.00  0.00    -0.219 N 
ATOM      4  H   LIG    1      186.243 129.279 133.685  0.00  0.00    +0.176 HD
ENDROOT
BRANCH   3   5
ATOM      5  N   LIG    1      184.530 128.627 132.570  0.00  0.00    -0.217 N 
ATOM      6  C   LIG    1      184.314 127.242 132.665  0.00  0.00    +0.079 A 
ATOM      7  C   LIG    1      182.984 126.971 132.668  0.00  0.00    +0.078 A 
ATOM      8  S   LIG    1      181.996 128.388 132.514  0.00  0.00    -0.033 S 
ATOM      9  C   LIG    1      183.401 129.405 132.453  0.00  0.00    +0.308 A 
ATOM     10  O   LIG    1      183.424 130.647 132.307  0.00  0.00    -0.258 OA
BRANCH   6  11
ATOM     11  C   LIG    1      185.415 126.293 132.741  0.00  0.00    +0.001 A 
ATOM     12  C   LIG    1      186.049 125.828 131.580  0.00  0.00    +0.010 A 
ATOM     13  C   LIG    1      187.094 124.915 131.658  0.00  0.00    +0.001 A 
ATOM     14  C   LIG    1      187.525 124.451 132.897  0.00  0.00    +0.000 A 
ATOM     15  C   LIG    1      186.907 124.905 134.058  0.00  0.00    +0.001 A 
ATOM     16  C   LIG    1      185.862 125.818 133.980  0.00  0.00    +0.010 A 
ENDBRANCH   6  11
ENDBRANCH   3   5
BRANCH   2  17
ATOM     17  C   LIG    1      188.023 130.110 131.907  0.00  0.00    +0.132 C 
BRANCH  17  18
ATOM     18  C   LIG    1      189.072 129.212 131.266  0.00  0.00    -0.039 A 
ATOM     19  C   LIG    1      189.306 127.931 131.765  0.00  0.00    +0.005 A 
ATOM     20  C   LIG    1      190.253 127.106 131.165  0.00  0.00    +0.015 A 
ATOM     21  C   LIG    1      190.975 127.555 130.062  0.00  0.00    +0.018 A 
ATOM     22 BR   LIG    1      192.259 126.431 129.247  0.00  0.00    -0.050 Br
ATOM     23  C   LIG    1      190.746 128.834 129.563  0.00  0.00    +0.015 A 
ATOM     24  C   LIG    1      189.801 129.660 130.163  0.00  0.00    +0.005 A 
ENDBRANCH  17  18
ENDBRANCH   2  17
TORSDOF 4
ENDMDL
MODEL 8
REMARK VINA RESULT:      -5.7     41.893     43.474
REMARK  Name = ZINC000000622877
REMARK                            x       y       z     vdW  Elec       q    Type
REMARK                         _______ _______ _______ _____ _____    ______ ____
ROOT
ATOM      1  O   LIG    1      179.339 150.442 150.376  0.00  0.00    -0.274 OA
ATOM      2  C   LIG    1      179.514 151.627 150.139  0.00  0.00    +0.235 C 
ATOM      3  N   LIG    1      179.535 152.531 151.157  0.00  0.00    -0.219 N 
ATOM      4  H   LIG    1      179.861 153.498 151.000  0.00  0.00    +0.176 HD
ENDROOT
BRANCH   3   5
ATOM      5  N   LIG    1      179.358 152.118 152.562  0.00  0.00    -0.217 N 
ATOM      6  C   LIG    1      180.441 151.866 153.421  0.00  0.00    +0.079 A 
ATOM      7  C   LIG    1      180.003 151.686 154.692  0.00  0.00    +0.078 A 
ATOM      8  S   LIG    1      178.278 151.779 154.843  0.00  0.00    -0.033 S 
ATOM      9  C   LIG    1      178.110 152.085 153.143  0.00  0.00    +0.308 A 
ATOM     10  O   LIG    1      177.043 152.237 152.509  0.00  0.00    -0.258 OA
BRANCH   6  11
ATOM     11  C   LIG    1      181.814 151.817 152.937  0.00  0.00    +0.001 A 
ATOM     12  C   LIG    1      182.320 150.666 152.319  0.00  0.00    +0.010 A 
ATOM     13  C   LIG    1      183.634 150.621 151.867  0.00  0.00    +0.001 A 
ATOM     14  C   LIG    1      184.463 151.726 152.023  0.00  0.00    +0.000 A 
ATOM     15  C   LIG    1      183.974 152.878 152.632  0.00  0.00    +0.001 A 
ATOM     16  C   LIG    1      182.660 152.922 153.084  0.00  0.00    +0.010 A 
ENDBRANCH   6  11
ENDBRANCH   3   5
BRANCH   2  17
ATOM     17  C   LIG    1      179.724 152.142 148.728  0.00  0.00    +0.132 C 
BRANCH  17  18
ATOM     18  C   LIG    1      181.223 152.225 148.472  0.00  0.00    -0.039 A 
ATOM     19  C   LIG    1      181.978 153.259 149.024  0.00  0.00    +0.005 A 
ATOM     20  C   LIG    1      183.350 153.321 148.803  0.00  0.00    +0.015 A 
ATOM     21  C   LIG    1      183.979 152.351 148.027  0.00  0.00    +0.018 A 
ATOM     22 BR   LIG    1      185.846 152.436 147.730  0.00  0.00    -0.050 Br
ATOM     23  C   LIG    1      183.229 151.318 147.472  0.00  0.00    +0.015 A 
ATOM     24  C   LIG    1      181.856 151.257 147.691  0.00  0.00    +0.005 A 
ENDBRANCH  17  18
ENDBRANCH   2  17
TORSDOF 4
ENDMDL
MODEL 9
REMARK VINA RESULT:      -5.7     30.896     33.194
REMARK  Name = ZINC000000622877
REMARK                            x       y       z     vdW  Elec       q    Type
REMARK                         _______ _______ _______ _____ _____    ______ ____
ROOT
ATOM      1  O   LIG    1      188.215  86.469 154.578  0.00  0.00    -0.274 OA
ATOM      2  C   LIG    1      188.262  87.194 155.559  0.00  0.00    +0.235 C 
ATOM      3  N   LIG    1      188.473  86.658 156.793  0.00  0.00    -0.219 N 
ATOM      4  H   LIG    1      188.698  87.262 157.601  0.00  0.00    +0.176 HD
ENDROOT
BRANCH   3   5
ATOM      5  N   LIG    1      188.660  85.208 156.986  0.00  0.00    -0.217 N 
ATOM      6  C   LIG    1      189.927  84.601 156.993  0.00  0.00    +0.079 A 
ATOM      7  C   LIG    1      189.825  83.301 157.370  0.00  0.00    +0.078 A 
ATOM      8  S   LIG    1      188.193  82.802 157.677  0.00  0.00    -0.033 S 
ATOM      9  C   LIG    1      187.599  84.389 157.302  0.00  0.00    +0.308 A 
ATOM     10  O   LIG    1      186.405  84.762 157.291  0.00  0.00    -0.258 OA
BRANCH   6  11
ATOM     11  C   LIG    1      191.134  85.329 156.629  0.00  0.00    +0.001 A 
ATOM     12  C   LIG    1      191.678  85.226 155.341  0.00  0.00    +0.010 A 
ATOM     13  C   LIG    1      192.836  85.917 155.001  0.00  0.00    +0.001 A 
ATOM     14  C   LIG    1      193.468  86.724 155.941  0.00  0.00    +0.000 A 
ATOM     15  C   LIG    1      192.938  86.838 157.223  0.00  0.00    +0.001 A 
ATOM     16  C   LIG    1      191.780  86.147 157.562  0.00  0.00    +0.010 A 
ENDBRANCH   6  11
ENDBRANCH   3   5
BRANCH   2  17
ATOM     17  C   LIG    1      188.100  88.698 155.455  0.00  0.00    +0.132 C 
BRANCH  17  18
ATOM     18  C   LIG    1      189.451  89.341 155.740  0.00  0.00    -0.039 A 
ATOM     19  C   LIG    1      189.664  90.040 156.928  0.00  0.00    +0.005 A 
ATOM     20  C   LIG    1      190.906  90.611 157.193  0.00  0.00    +0.015 A 
ATOM     21  C   LIG    1      191.944  90.487 156.273  0.00  0.00    +0.018 A 
ATOM     22 BR   LIG    1      193.631  91.261 156.637  0.00  0.00    -0.050 Br
ATOM     23  C   LIG    1      191.734  89.792 155.086  0.00  0.00    +0.015 A 
ATOM     24  C   LIG    1      190.492  89.223 154.819  0.00  0.00    +0.005 A 
ENDBRANCH  17  18
ENDBRANCH   2  17
TORSDOF 4
ENDMDL
