REMARK VINA RESULT:      -5.8     30.116     32.358
REMARK  Name = ZINC000000622877
REMARK                            x       y       z     vdW  Elec       q    Type
REMARK                         _______ _______ _______ _____ _____    ______ ____
ROOT
ATOM      1  O   LIG    1      191.232  89.592 158.758  0.00  0.00    -0.274 OA
ATOM      2  C   LIG    1      191.051  89.747 157.560  0.00  0.00    +0.235 C 
ATOM      3  N   LIG    1      191.999  89.344 156.670  0.00  0.00    -0.219 N 
ATOM      4  H   LIG    1      191.790  89.297 155.659  0.00  0.00    +0.176 HD
ENDROOT
BRANCH   3   5
ATOM      5  N   LIG    1      193.255  88.707 157.110  0.00  0.00    -0.217 N 
ATOM      6  C   LIG    1      193.429  87.314 157.138  0.00  0.00    +0.079 A 
ATOM      7  C   LIG    1      194.724  87.005 157.404  0.00  0.00    +0.078 A 
ATOM      8  S   LIG    1      195.721  88.399 157.662  0.00  0.00    -0.033 S 
ATOM      9  C   LIG    1      194.372  89.459 157.396  0.00  0.00    +0.308 A 
ATOM     10  O   LIG    1      194.373  90.707 157.463  0.00  0.00    -0.258 OA
BRANCH   6  11
ATOM     11  C   LIG    1      192.324  86.393 156.908  0.00  0.00    +0.001 A 
ATOM     12  C   LIG    1      191.525  85.946 157.968  0.00  0.00    +0.010 A 
ATOM     13  C   LIG    1      190.477  85.060 157.745  0.00  0.00    +0.001 A 
ATOM     14  C   LIG    1      190.209  84.608 156.457  0.00  0.00    +0.000 A 
ATOM     15  C   LIG    1      190.993  85.045 155.394  0.00  0.00    +0.001 A 
ATOM     16  C   LIG    1      192.041  85.930 155.618  0.00  0.00    +0.010 A 
ENDBRANCH   6  11
ENDBRANCH   3   5
BRANCH   2  17
ATOM     17  C   LIG    1      189.784  90.375 157.014  0.00  0.00    +0.132 C 
BRANCH  17  18
ATOM     18  C   LIG    1      189.097  89.352 156.119  0.00  0.00    -0.039 A 
ATOM     19  C   LIG    1      188.985  89.576 154.746  0.00  0.00    +0.005 A 
ATOM     20  C   LIG    1      188.373  88.631 153.929  0.00  0.00    +0.015 A 
ATOM     21  C   LIG    1      187.867  87.455 154.476  0.00  0.00    +0.018 A 
ATOM     22 BR   LIG    1      187.037  86.170 153.362  0.00  0.00    -0.050 Br
ATOM     23  C   LIG    1      187.974  87.229 155.845  0.00  0.00    +0.015 A 
ATOM     24  C   LIG    1      188.584  88.174 156.664  0.00  0.00    +0.005 A 
ENDBRANCH  17  18
ENDBRANCH   2  17
TORSDOF 4
