REMARK VINA RESULT:      -6.8      9.873     14.280
REMARK  Name = ZINC000049483930
REMARK                            x       y       z     vdW  Elec       q    Type
REMARK                         _______ _______ _______ _____ _____    ______ ____
ROOT
ATOM      1  O   LIG    1      190.854  87.058 155.815  0.00  0.00    -0.275 OA
ATOM      2  C   LIG    1      190.891  86.812 157.004  0.00  0.00    +0.226 C 
ATOM      3  N   LIG    1      190.608  85.544 157.408  0.00  0.00    -0.299 N 
ATOM      4  C   LIG    1      190.642  84.887 158.716  0.00  0.00    +0.122 C 
ATOM      5  C   LIG    1      190.218  83.591 157.955  0.00  0.00    +0.112 C 
ATOM      6  C   LIG    1      190.314  84.359 156.602  0.00  0.00    +0.122 C 
ENDROOT
BRANCH   5   7
ATOM      7  C   LIG    1      188.794  83.188 158.268  0.00  0.00    +0.234 A 
ATOM      8  O   LIG    1      188.319  82.019 157.882  0.00  0.00    -0.337 OA
ATOM      9  N   LIG    1      187.071  81.932 158.288  0.00  0.00    -0.056 NA
ATOM     10  C   LIG    1      186.834  83.040 158.902  0.00  0.00    +0.209 A 
ATOM     11  N   LIG    1      187.919  83.856 158.898  0.00  0.00    -0.191 NA
BRANCH  10  12
ATOM     12  C   LIG    1      185.560  83.372 159.527  0.00  0.00    +0.060 A 
ATOM     13  S   LIG    1      184.533  84.629 158.904  0.00  0.00    -0.093 S 
ATOM     14  C   LIG    1      183.364  84.353 160.143  0.00  0.00    +0.046 A 
ATOM     15  C   LIG    1      183.747  83.349 160.985  0.00  0.00    +0.008 A 
ATOM     16  C   LIG    1      184.987  82.794 160.639  0.00  0.00    +0.019 A 
ENDBRANCH  10  12
ENDBRANCH   5   7
BRANCH   2  17
ATOM     17  C   LIG    1      191.266  87.857 158.034  0.00  0.00    +0.174 C 
BRANCH  17  18
ATOM     18  S   LIG    1      190.480  89.408 157.456  0.00  0.00    -0.058 S 
BRANCH  18  19
ATOM     19  C   LIG    1      191.871  90.320 156.971  0.00  0.00    +0.258 A 
ATOM     20  O   LIG    1      192.280  91.336 157.784  0.00  0.00    -0.431 OA
ATOM     21  C   LIG    1      193.353  91.840 157.160  0.00  0.00    +0.156 A 
ATOM     22  C   LIG    1      194.175  92.895 157.543  0.00  0.00    +0.048 A 
ATOM     23  C   LIG    1      195.239  93.223 156.708  0.00  0.00    +0.004 A 
ATOM     24  C   LIG    1      195.455  92.498 155.520  0.00  0.00    +0.002 A 
ATOM     25  C   LIG    1      194.614  91.446 155.165  0.00  0.00    +0.031 A 
ATOM     26  C   LIG    1      193.545  91.116 156.005  0.00  0.00    +0.110 A 
ATOM     27  N   LIG    1      192.583  90.147 155.901  0.00  0.00    -0.203 NA
ENDBRANCH  18  19
ENDBRANCH  17  18
ENDBRANCH   2  17
TORSDOF 5
