REMARK VINA RESULT:      -7.2      5.532      7.091
REMARK  Name = ZINC000049409419
REMARK                            x       y       z     vdW  Elec       q    Type
REMARK                         _______ _______ _______ _____ _____    ______ ____
ROOT
ATOM      1  N   LIG    1      168.481 145.268 145.983  0.00  0.00    -0.282 N 
ATOM      2  H   LIG    1      168.740 144.382 146.449  0.00  0.00    +0.155 HD
ATOM      3  C   LIG    1      167.342 145.228 145.217  0.00  0.00    +0.226 C 
ATOM      4  O   LIG    1      166.856 146.243 144.766  0.00  0.00    -0.275 OA
ENDROOT
BRANCH   1   9
ATOM      5  C   LIG    1      171.052 148.470 146.898  0.00  0.00    +0.142 A 
ATOM      6  C   LIG    1      169.903 148.285 147.687  0.00  0.00    +0.084 A 
ATOM      7 CL   LIG    1      169.546 149.350 149.006  0.00  0.00    -0.080 Cl
ATOM      8  C   LIG    1      169.029 147.233 147.409  0.00  0.00    +0.050 A 
ATOM      9  C   LIG    1      169.310 146.369 146.348  0.00  0.00    +0.077 A 
ATOM     10  C   LIG    1      170.453 146.566 145.556  0.00  0.00    +0.145 A 
ATOM     11  C   LIG    1      171.330 147.615 145.830  0.00  0.00    +0.094 A 
BRANCH   5  13
ATOM     12  C   LIG    1      171.888 150.836 146.589  0.00  0.00    +0.277 C 
ATOM     13  O   LIG    1      171.902 149.529 147.205  0.00  0.00    -0.494 OA
ENDBRANCH   5  13
BRANCH  10  14
ATOM     14  O   LIG    1      170.674 145.690 144.491  0.00  0.00    -0.493 OA
ATOM     15  C   LIG    1      171.340 146.029 143.253  0.00  0.00    +0.277 C 
ENDBRANCH  10  14
ENDBRANCH   1   9
BRANCH   3  16
ATOM     16  C   LIG    1      166.713 143.881 144.982  0.00  0.00    +0.193 C 
BRANCH  16  17
ATOM     17  C   LIG    1      165.590 143.804 145.979  0.00  0.00    +0.226 A 
ATOM     18  O   LIG    1      165.709 144.335 147.162  0.00  0.00    -0.419 OA
ATOM     19  C   LIG    1      164.574 144.084 147.781  0.00  0.00    +0.255 A 
ATOM     20  N   LIG    1      163.783 143.416 147.002  0.00  0.00    -0.107 NA
ATOM     21  N   LIG    1      164.455 143.236 145.826  0.00  0.00    -0.112 NA
BRANCH  19  22
ATOM     22  C   LIG    1      164.361 144.546 149.144  0.00  0.00    +0.079 A 
ATOM     23  C   LIG    1      164.754 143.961 150.336  0.00  0.00    -0.031 A 
ATOM     24  C   LIG    1      165.522 142.660 150.441  0.00  0.00    +0.045 C 
ATOM     25  C   LIG    1      164.364 144.703 151.462  0.00  0.00    +0.012 A 
ATOM     26  C   LIG    1      163.682 145.842 151.145  0.00  0.00    +0.046 A 
ATOM     27  S   LIG    1      163.503 146.027 149.443  0.00  0.00    -0.092 S 
ENDBRANCH  19  22
ENDBRANCH  16  17
ENDBRANCH   3  16
TORSDOF 6
