REMARK VINA RESULT:      -8.0     64.131     68.442
REMARK  Name = ZINC000049420917
REMARK                            x       y       z     vdW  Elec       q    Type
REMARK                         _______ _______ _______ _____ _____    ______ ____
ROOT
ATOM      1  N   LIG    1      189.137  83.844 158.120  0.00  0.00    -0.205 N 
ATOM      2  C   LIG    1      187.746  83.751 158.371  0.00  0.00    +0.160 A 
ATOM      3  N   LIG    1      187.340  82.876 159.302  0.00  0.00    -0.238 NA
ATOM      4  C   LIG    1      186.038  82.755 159.558  0.00  0.00    +0.113 A 
ATOM      5  C   LIG    1      185.085  83.520 158.890  0.00  0.00    +0.022 A 
ATOM      6  C   LIG    1      185.492  84.437 157.927  0.00  0.00    +0.034 A 
ATOM      7  C   LIG    1      186.851  84.542 157.662  0.00  0.00    +0.149 A 
ATOM      8  S   LIG    1      187.590  85.679 156.538  0.00  0.00    +0.082 S 
ATOM      9  O   LIG    1      187.903  85.012 155.332  0.00  0.00    -0.150 OA
ATOM     10  O   LIG    1      186.769  86.830 156.435  0.00  0.00    -0.150 OA
ATOM     11  N   LIG    1      188.986  86.079 157.297  0.00  0.00    -0.150 N 
ATOM     12  C   LIG    1      189.740  84.975 157.549  0.00  0.00    +0.334 C 
ATOM     13  O   LIG    1      190.940  84.979 157.291  0.00  0.00    -0.250 OA
ENDROOT
BRANCH   1  18
ATOM     14  C   LIG    1      192.464  79.354 159.303  0.00  0.00    +0.044 C 
ATOM     15  C   LIG    1      191.590  80.549 158.986  0.00  0.00    -0.050 A 
ATOM     16  C   LIG    1      190.840  80.576 157.809  0.00  0.00    +0.005 A 
ATOM     17  C   LIG    1      190.026  81.665 157.517  0.00  0.00    +0.024 A 
ATOM     18  C   LIG    1      189.966  82.728 158.417  0.00  0.00    +0.044 A 
ATOM     19  C   LIG    1      190.703  82.714 159.599  0.00  0.00    +0.024 A 
ATOM     20  C   LIG    1      191.514  81.619 159.880  0.00  0.00    +0.005 A 
ENDBRANCH   1  18
BRANCH  11  21
ATOM     21  C   LIG    1      189.627  87.277 156.758  0.00  0.00    +0.171 C 
BRANCH  21  22
ATOM     22  C   LIG    1      189.262  88.357 157.757  0.00  0.00    -0.028 A 
ATOM     23  C   LIG    1      188.865  89.620 157.304  0.00  0.00    +0.008 A 
ATOM     24  C   LIG    1      188.523  90.616 158.216  0.00  0.00    +0.038 A 
ATOM     25  C   LIG    1      188.580  90.327 159.572  0.00  0.00    +0.123 A 
ATOM     26  F   LIG    1      188.249  91.293 160.462  0.00  0.00    -0.205 F 
ATOM     27  C   LIG    1      188.964  89.081 160.047  0.00  0.00    +0.038 A 
ATOM     28  C   LIG    1      189.306  88.091 159.130  0.00  0.00    +0.008 A 
ENDBRANCH  21  22
ENDBRANCH  11  21
TORSDOF 3
