REMARK VINA RESULT:      -6.7      0.000      0.000
REMARK  Name = ZINC000022625070
REMARK                            x       y       z     vdW  Elec       q    Type
REMARK                         _______ _______ _______ _____ _____    ______ ____
ROOT
ATOM      1  C   LIG    1      200.793 113.152 145.391  0.00  0.00    +0.171 A 
ATOM      2  C   LIG    1      202.112 113.607 145.371  0.00  0.00    +0.032 A 
ATOM      3  C   LIG    1      202.883 114.521 144.434  0.00  0.00    +0.046 C 
ATOM      4  C   LIG    1      203.987 115.241 145.257  0.00  0.00    +0.040 C 
ATOM      5  C   LIG    1      204.778 114.255 146.131  0.00  0.00    -0.036 A 
ATOM      6  C   LIG    1      204.116 113.175 146.739  0.00  0.00    +0.027 A 
ATOM      7  C   LIG    1      204.807 112.326 147.606  0.00  0.00    +0.057 A 
ATOM      8  C   LIG    1      206.163 112.550 147.844  0.00  0.00    +0.121 A 
ATOM      9  C   LIG    1      206.830 113.607 147.232  0.00  0.00    +0.046 A 
ATOM     10  C   LIG    1      206.134 114.461 146.380  0.00  0.00    +0.008 A 
ATOM     11  C   LIG    1      202.727 112.995 146.391  0.00  0.00    +0.171 A 
ATOM     12  O   LIG    1      201.829 112.209 146.998  0.00  0.00    -0.354 OA
ATOM     13  N   LIG    1      200.652 112.307 146.388  0.00  0.00    -0.073 NA
ENDROOT
BRANCH   1  16
ATOM     14  N   LIG    1      199.252 112.562 143.605  0.00  0.00    -0.307 N 
ATOM     15  H   LIG    1      199.743 111.660 143.631  0.00  0.00    +0.149 HD
ATOM     16  C   LIG    1      199.719 113.521 144.462  0.00  0.00    +0.266 C 
ATOM     17  O   LIG    1      199.214 114.641 144.395  0.00  0.00    -0.268 OA
BRANCH  14  18
ATOM     18  C   LIG    1      198.362 112.833 142.493  0.00  0.00    +0.070 C 
ATOM     19  C   LIG    1      197.398 111.650 142.418  0.00  0.00    +0.028 C 
BRANCH  18  20
ATOM     20  C   LIG    1      199.220 113.009 141.226  0.00  0.00    +0.023 C 
BRANCH  20  21
ATOM     21  C   LIG    1      199.235 114.426 140.612  0.00  0.00    +0.017 C 
BRANCH  21  22
ATOM     22  C   LIG    1      198.077 114.472 139.586  0.00  0.00    +0.084 C 
BRANCH  22  23
ATOM     23  N   LIG    1      196.997 115.369 140.076  0.00  0.00    -0.303 NA
BRANCH  23  25
ATOM     24  C   LIG    1      195.810 113.385 139.528  0.00  0.00    +0.020 C 
ATOM     25  C   LIG    1      195.736 114.656 140.378  0.00  0.00    +0.081 C 
ENDBRANCH  23  25
BRANCH  23  26
ATOM     26  C   LIG    1      197.432 116.277 141.155  0.00  0.00    +0.081 C 
ATOM     27  C   LIG    1      196.206 116.443 142.061  0.00  0.00    +0.020 C 
ENDBRANCH  23  26
ENDBRANCH  22  23
ENDBRANCH  21  22
ENDBRANCH  20  21
ENDBRANCH  18  20
ENDBRANCH  14  18
ENDBRANCH   1  16
BRANCH   8  28
ATOM     28  O   LIG    1      206.899 111.745 148.683  0.00  0.00    -0.495 OA
ATOM     29  C   LIG    1      207.671 110.596 148.266  0.00  0.00    +0.277 C 
ENDBRANCH   8  28
TORSDOF 9
