REMARK VINA RESULT:      -7.2      2.969      8.073
REMARK  Name = ZINC000000623420
REMARK                            x       y       z     vdW  Elec       q    Type
REMARK                         _______ _______ _______ _____ _____    ______ ____
ROOT
ATOM      1  C   LIG    1      170.232 148.898 146.943  0.00  0.00    +0.102 A 
ATOM      2  C   LIG    1      170.146 150.273 146.773  0.00  0.00    -0.014 A 
ATOM      3  C   LIG    1      171.002 151.047 145.778  0.00  0.00    +0.046 C 
ATOM      4  C   LIG    1      169.182 150.891 147.619  0.00  0.00    +0.091 A 
ATOM      5  C   LIG    1      168.520 149.941 148.392  0.00  0.00    +0.087 A 
ATOM      6  S   LIG    1      169.068 148.337 148.108  0.00  0.00    -0.066 S 
ENDROOT
BRANCH   5   7
ATOM      7  N   LIG    1      167.481 150.215 149.304  0.00  0.00    -0.275 N 
ATOM      8  H   LIG    1      167.740 150.176 150.301  0.00  0.00    +0.156 HD
ATOM      9  C   LIG    1      166.147 150.499 149.068  0.00  0.00    +0.249 C 
ATOM     10  O   LIG    1      165.713 150.486 147.927  0.00  0.00    -0.270 OA
BRANCH   9  11
ATOM     11  C   LIG    1      165.329 150.779 150.251  0.00  0.00    +0.040 A 
ATOM     12  C   LIG    1      164.766 152.050 150.481  0.00  0.00    -0.038 A 
ATOM     13  C   LIG    1      164.967 153.194 149.500  0.00  0.00    +0.044 C 
ATOM     14  C   LIG    1      164.005 152.271 151.629  0.00  0.00    +0.004 A 
ATOM     15  C   LIG    1      163.801 151.249 152.550  0.00  0.00    +0.000 A 
ATOM     16  C   LIG    1      164.351 149.992 152.330  0.00  0.00    +0.001 A 
ATOM     17  C   LIG    1      165.107 149.757 151.188  0.00  0.00    +0.013 A 
ENDBRANCH   9  11
ENDBRANCH   5   7
BRANCH   1  18
ATOM     18  C   LIG    1      171.123 147.928 146.326  0.00  0.00    +0.346 C 
ATOM     19  O   LIG    1      172.325 147.820 146.548  0.00  0.00    -0.244 OA
BRANCH  18  20
ATOM     20  O   LIG    1      170.588 147.057 145.433  0.00  0.00    -0.461 OA
BRANCH  20  22
ATOM     21  C   LIG    1      171.498 145.669 143.766  0.00  0.00    +0.048 C 
ATOM     22  C   LIG    1      170.951 147.069 144.035  0.00  0.00    +0.229 C 
ENDBRANCH  20  22
ENDBRANCH  18  20
ENDBRANCH   1  18
BRANCH   4  23
ATOM     23  C   LIG    1      168.917 152.322 147.702  0.00  0.00    +0.342 C 
ATOM     24  O   LIG    1      168.021 152.912 147.109  0.00  0.00    -0.245 OA
BRANCH  23  25
ATOM     25  O   LIG    1      169.718 153.100 148.494  0.00  0.00    -0.461 OA
BRANCH  25  26
ATOM     26  C   LIG    1      169.844 152.934 149.933  0.00  0.00    +0.229 C 
ATOM     27  C   LIG    1      168.551 153.502 150.518  0.00  0.00    +0.048 C 
ENDBRANCH  25  26
ENDBRANCH  23  25
ENDBRANCH   4  23
TORSDOF 8
