REMARK VINA RESULT:      -7.1      3.668      5.370
REMARK  Name = 
REMARK                            x       y       z     vdW  Elec       q    Type
REMARK                         _______ _______ _______ _____ _____    ______ ____
ROOT
ATOM      1  C   LIG    1      203.581  78.667 149.852  0.00  0.00    +0.032 C 
ATOM      2  C   LIG    1      203.609  80.159 149.941  0.00  0.00    -0.006 A 
ATOM      3  C   LIG    1      203.071  80.821 151.053  0.00  0.00    +0.071 A 
ATOM      4  C   LIG    1      203.090  82.201 151.149  0.00  0.00    +0.033 A 
ATOM      5  C   LIG    1      203.647  82.930 150.131  0.00  0.00    +0.075 A 
ATOM      6  C   LIG    1      204.186  82.279 149.015  0.00  0.00    +0.016 A 
ATOM      7  C   LIG    1      204.160  80.903 148.935  0.00  0.00    -0.002 A 
ENDROOT
BRANCH   5   8
ATOM      8  N   LIG    1      203.686  84.335 150.186  0.00  0.00    -0.175 NA
ATOM      9  C   LIG    1      202.720  85.203 149.643  0.00  0.00    +0.269 C 
ATOM     10  O   LIG    1      201.731  84.731 149.055  0.00  0.00    -0.268 OA
BRANCH   9  11
ATOM     11  C   LIG    1      202.888  86.657 149.775  0.00  0.00    +0.055 A 
ATOM     12  C   LIG    1      202.129  87.389 150.660  0.00  0.00    +0.004 A 
ATOM     13  C   LIG    1      202.287  88.772 150.789  0.00  0.00    -0.003 A 
ATOM     14  C   LIG    1      203.211  89.444 150.028  0.00  0.00    -0.006 A 
ATOM     15  C   LIG    1      203.972  88.721 149.142  0.00  0.00    -0.003 A 
ATOM     16  C   LIG    1      203.814  87.336 149.013  0.00  0.00    +0.004 A 
BRANCH  14  17
ATOM     17  C   LIG    1      203.374  90.903 150.166  0.00  0.00    +0.099 C 
BRANCH  17  18
ATOM     18  N   LIG    1      203.928  91.319 151.414  0.00  0.00    -0.267 NA
ATOM     19  C   LIG    1      205.224  90.738 151.703  0.00  0.00    +0.090 C 
ATOM     20  C   LIG    1      206.263  91.189 150.697  0.00  0.00    +0.090 C 
ATOM     21  N   LIG    1      206.022  92.571 150.296  0.00  0.00    -0.269 NA
ATOM     22  C   LIG    1      207.248  93.264 150.040  0.00  0.00    +0.090 C 
ATOM     23  C   LIG    1      205.317  93.290 151.361  0.00  0.00    +0.090 C 
ATOM     24  C   LIG    1      203.924  92.755 151.455  0.00  0.00    +0.090 C 
ENDBRANCH  17  18
ENDBRANCH  14  17
ENDBRANCH   9  11
ENDBRANCH   5   8
BRANCH   3  25
ATOM     25  N   LIG    1      202.526  80.008 152.041  0.00  0.00    -0.178 NA
BRANCH  25  26
ATOM     26  C   LIG    1      202.928  79.797 153.362  0.00  0.00    +0.241 A 
ATOM     27  N   LIG    1      203.437  78.575 153.668  0.00  0.00    -0.212 NA
ATOM     28  C   LIG    1      203.865  78.205 154.868  0.00  0.00    +0.087 A 
ATOM     29  C   LIG    1      203.790  79.141 155.905  0.00  0.00    +0.040 A 
ATOM     30  C   LIG    1      203.274  80.382 155.602  0.00  0.00    +0.103 A 
ATOM     31  N   LIG    1      202.863  80.669 154.355  0.00  0.00    -0.211 NA
BRANCH  28  32
ATOM     32  C   LIG    1      204.406  76.882 155.156  0.00  0.00    +0.037 A 
ATOM     33  C   LIG    1      204.093  75.823 154.334  0.00  0.00    +0.100 A 
ATOM     34  N   LIG    1      204.593  74.577 154.591  0.00  0.00    -0.242 NA
ATOM     35  C   LIG    1      205.387  74.345 155.626  0.00  0.00    +0.099 A 
ATOM     36  C   LIG    1      205.738  75.368 156.486  0.00  0.00    +0.021 A 
ATOM     37  C   LIG    1      205.231  76.643 156.230  0.00  0.00    +0.005 A 
ENDBRANCH  28  32
ENDBRANCH  25  26
ENDBRANCH   3  25
TORSDOF 7
