REMARK VINA RESULT:      -7.9     41.578     45.378
REMARK  Name = ZINC000049420917
REMARK                            x       y       z     vdW  Elec       q    Type
REMARK                         _______ _______ _______ _____ _____    ______ ____
ROOT
ATOM      1  N   LIG    1      199.476 114.582 143.808  0.00  0.00    -0.205 N 
ATOM      2  C   LIG    1      198.644 113.812 142.957  0.00  0.00    +0.160 A 
ATOM      3  N   LIG    1      198.501 112.510 143.241  0.00  0.00    -0.238 NA
ATOM      4  C   LIG    1      197.734 111.753 142.458  0.00  0.00    +0.113 A 
ATOM      5  C   LIG    1      197.068 112.280 141.353  0.00  0.00    +0.022 A 
ATOM      6  C   LIG    1      197.201 113.630 141.051  0.00  0.00    +0.034 A 
ATOM      7  C   LIG    1      198.015 114.403 141.869  0.00  0.00    +0.149 A 
ATOM      8  S   LIG    1      198.271 116.139 141.713  0.00  0.00    +0.082 S 
ATOM      9  O   LIG    1      199.512 116.376 141.080  0.00  0.00    -0.150 OA
ATOM     10  O   LIG    1      197.128 116.725 141.114  0.00  0.00    -0.150 OA
ATOM     11  N   LIG    1      198.372 116.629 143.273  0.00  0.00    -0.150 N 
ATOM     12  C   LIG    1      199.369 115.975 143.928  0.00  0.00    +0.334 C 
ATOM     13  O   LIG    1      200.158 116.603 144.629  0.00  0.00    -0.250 OA
ENDROOT
BRANCH   1  18
ATOM     14  C   LIG    1      203.578 111.948 146.785  0.00  0.00    +0.044 C 
ATOM     15  C   LIG    1      202.489 112.638 145.991  0.00  0.00    -0.050 A 
ATOM     16  C   LIG    1      201.206 112.765 146.525  0.00  0.00    +0.005 A 
ATOM     17  C   LIG    1      200.203 113.408 145.806  0.00  0.00    +0.024 A 
ATOM     18  C   LIG    1      200.498 113.927 144.546  0.00  0.00    +0.044 A 
ATOM     19  C   LIG    1      201.776 113.813 144.001  0.00  0.00    +0.024 A 
ATOM     20  C   LIG    1      202.770 113.168 144.729  0.00  0.00    +0.005 A 
ENDBRANCH   1  18
BRANCH  11  21
ATOM     21  C   LIG    1      198.227 118.073 143.447  0.00  0.00    +0.171 C 
BRANCH  21  22
ATOM     22  C   LIG    1      197.093 118.200 144.445  0.00  0.00    -0.028 A 
ATOM     23  C   LIG    1      197.375 118.443 145.794  0.00  0.00    +0.008 A 
ATOM     24  C   LIG    1      196.338 118.567 146.715  0.00  0.00    +0.038 A 
ATOM     25  C   LIG    1      195.029 118.451 146.267  0.00  0.00    +0.123 A 
ATOM     26  F   LIG    1      194.018 118.570 147.160  0.00  0.00    -0.205 F 
ATOM     27  C   LIG    1      194.723 118.218 144.933  0.00  0.00    +0.038 A 
ATOM     28  C   LIG    1      195.765 118.093 144.019  0.00  0.00    +0.008 A 
ENDBRANCH  21  22
ENDBRANCH  11  21
TORSDOF 3
