REMARK VINA RESULT:      -7.0      1.871      2.603
REMARK  Name = ZINC000000623204
REMARK                            x       y       z     vdW  Elec       q    Type
REMARK                         _______ _______ _______ _____ _____    ______ ____
ROOT
ATOM      1  C   LIG    1      169.891 145.872 145.592  0.00  0.00    +0.124 A 
ATOM      2  C   LIG    1      170.553 145.844 144.355  0.00  0.00    +0.067 A 
ATOM      3 CL   LIG    1      170.786 144.377 143.457  0.00  0.00    -0.082 Cl
ATOM      4  C   LIG    1      171.077 147.020 143.810  0.00  0.00    +0.023 A 
ATOM      5  C   LIG    1      170.955 148.224 144.489  0.00  0.00    +0.014 A 
ATOM      6  C   LIG    1      170.301 148.279 145.729  0.00  0.00    +0.039 A 
ATOM      7  C   LIG    1      169.780 147.092 146.264  0.00  0.00    +0.043 A 
ENDROOT
BRANCH   6   8
ATOM      8  C   LIG    1      170.162 149.532 146.471  0.00  0.00    +0.245 C 
ATOM      9  N   LIG    1      168.985 149.811 147.102  0.00  0.00    -0.305 N 
ATOM     10  H   LIG    1      168.209 149.144 147.055  0.00  0.00    +0.150 HD
ATOM     11  O   LIG    1      171.064 150.355 146.569  0.00  0.00    -0.270 OA
BRANCH   9  12
ATOM     12  C   LIG    1      168.730 151.055 147.800  0.00  0.00    +0.100 C 
ATOM     13  C   LIG    1      168.834 150.774 149.305  0.00  0.00    +0.033 C 
BRANCH  12  14
ATOM     14  C   LIG    1      167.300 151.448 147.454  0.00  0.00    -0.027 A 
ATOM     15  C   LIG    1      166.335 151.681 148.441  0.00  0.00    +0.005 A 
ATOM     16  C   LIG    1      165.034 152.028 148.088  0.00  0.00    +0.000 A 
ATOM     17  C   LIG    1      164.683 152.146 146.748  0.00  0.00    +0.000 A 
ATOM     18  C   LIG    1      165.635 151.916 145.760  0.00  0.00    +0.000 A 
ATOM     19  C   LIG    1      166.936 151.569 146.112  0.00  0.00    +0.005 A 
ENDBRANCH  12  14
ENDBRANCH   9  12
ENDBRANCH   6   8
BRANCH   1  20
ATOM     20  S   LIG    1      169.184 144.382 146.313  0.00  0.00    +0.062 S 
ATOM     21  O   LIG    1      170.177 143.364 146.300  0.00  0.00    -0.153 OA
ATOM     22  O   LIG    1      168.641 144.699 147.588  0.00  0.00    -0.153 OA
BRANCH  20  23
ATOM     23  N   LIG    1      167.952 143.940 145.286  0.00  0.00    -0.177 NA
BRANCH  23  25
ATOM     24  C   LIG    1      167.809 142.071 143.718  0.00  0.00    +0.022 C 
ATOM     25  C   LIG    1      167.519 142.539 145.151  0.00  0.00    +0.106 C 
ENDBRANCH  23  25
BRANCH  23  26
ATOM     26  C   LIG    1      166.894 144.916 145.017  0.00  0.00    +0.106 C 
ATOM     27  C   LIG    1      165.642 144.315 145.663  0.00  0.00    +0.022 C 
ENDBRANCH  23  26
ENDBRANCH  20  23
ENDBRANCH   1  20
TORSDOF 7
