MODEL 1
REMARK VINA RESULT:      -7.8      0.000      0.000
REMARK  Name = 
REMARK                            x       y       z     vdW  Elec       q    Type
REMARK                         _______ _______ _______ _____ _____    ______ ____
ROOT
ATOM      1  C   LIG    1      201.865  84.002 147.735  0.00  0.00    +0.032 C 
ATOM      2  C   LIG    1      202.450  84.977 148.705  0.00  0.00    -0.006 A 
ATOM      3  C   LIG    1      202.104  84.931 150.062  0.00  0.00    +0.071 A 
ATOM      4  C   LIG    1      202.636  85.826 150.973  0.00  0.00    +0.033 A 
ATOM      5  C   LIG    1      203.521  86.776 150.530  0.00  0.00    +0.075 A 
ATOM      6  C   LIG    1      203.873  86.830 149.177  0.00  0.00    +0.016 A 
ATOM      7  C   LIG    1      203.333  85.931 148.284  0.00  0.00    -0.002 A 
ENDROOT
BRANCH   5   8
ATOM      8  N   LIG    1      204.086  87.707 151.421  0.00  0.00    -0.175 NA
ATOM      9  C   LIG    1      203.680  89.047 151.571  0.00  0.00    +0.269 C 
ATOM     10  O   LIG    1      202.747  89.488 150.877  0.00  0.00    -0.268 OA
BRANCH   9  11
ATOM     11  C   LIG    1      204.362  89.911 152.543  0.00  0.00    +0.055 A 
ATOM     12  C   LIG    1      204.172  91.275 152.548  0.00  0.00    +0.004 A 
ATOM     13  C   LIG    1      204.819  92.101 153.473  0.00  0.00    -0.003 A 
ATOM     14  C   LIG    1      205.671  91.569 154.409  0.00  0.00    -0.006 A 
ATOM     15  C   LIG    1      205.866  90.209 154.410  0.00  0.00    -0.003 A 
ATOM     16  C   LIG    1      205.219  89.382 153.485  0.00  0.00    +0.004 A 
BRANCH  14  17
ATOM     17  C   LIG    1      206.351  92.443 155.381  0.00  0.00    +0.099 C 
BRANCH  17  18
ATOM     18  N   LIG    1      206.395  91.925 156.711  0.00  0.00    -0.267 NA
ATOM     19  C   LIG    1      207.681  92.084 157.360  0.00  0.00    +0.090 C 
ATOM     20  C   LIG    1      208.021  93.548 157.549  0.00  0.00    +0.090 C 
ATOM     21  N   LIG    1      206.819  94.320 157.845  0.00  0.00    -0.269 NA
ATOM     22  C   LIG    1      207.096  95.400 158.744  0.00  0.00    +0.090 C 
ATOM     23  C   LIG    1      205.811  93.462 158.475  0.00  0.00    +0.090 C 
ATOM     24  C   LIG    1      205.305  92.493 157.455  0.00  0.00    +0.090 C 
ENDBRANCH  17  18
ENDBRANCH  14  17
ENDBRANCH   9  11
ENDBRANCH   5   8
BRANCH   3  25
ATOM     25  N   LIG    1      201.201  83.938 150.429  0.00  0.00    -0.178 NA
BRANCH  25  26
ATOM     26  C   LIG    1      201.332  82.889 151.340  0.00  0.00    +0.241 A 
ATOM     27  N   LIG    1      202.252  81.930 151.054  0.00  0.00    -0.212 NA
ATOM     28  C   LIG    1      202.507  80.867 151.806  0.00  0.00    +0.087 A 
ATOM     29  C   LIG    1      201.775  80.714 152.988  0.00  0.00    +0.040 A 
ATOM     30  C   LIG    1      200.840  81.682 153.284  0.00  0.00    +0.103 A 
ATOM     31  N   LIG    1      200.649  82.727 152.462  0.00  0.00    -0.211 NA
BRANCH  28  32
ATOM     32  C   LIG    1      203.504  79.860 151.463  0.00  0.00    +0.037 A 
ATOM     33  C   LIG    1      203.697  79.511 150.145  0.00  0.00    +0.100 A 
ATOM     34  N   LIG    1      204.628  78.569 149.808  0.00  0.00    -0.242 NA
ATOM     35  C   LIG    1      205.370  77.965 150.725  0.00  0.00    +0.099 A 
ATOM     36  C   LIG    1      205.224  78.273 152.064  0.00  0.00    +0.021 A 
ATOM     37  C   LIG    1      204.274  79.235 152.415  0.00  0.00    +0.005 A 
ENDBRANCH  28  32
ENDBRANCH  25  26
ENDBRANCH   3  25
TORSDOF 7
ENDMDL
MODEL 2
REMARK VINA RESULT:      -7.7    106.302    112.869
REMARK  Name = 
REMARK                            x       y       z     vdW  Elec       q    Type
REMARK                         _______ _______ _______ _____ _____    ______ ____
ROOT
ATOM      1  C   LIG    1      158.643 191.887 160.707  0.00  0.00    +0.032 C 
ATOM      2  C   LIG    1      157.377 191.164 161.037  0.00  0.00    -0.006 A 
ATOM      3  C   LIG    1      157.312 189.766 160.967  0.00  0.00    +0.071 A 
ATOM      4  C   LIG    1      156.148 189.082 161.270  0.00  0.00    +0.033 A 
ATOM      5  C   LIG    1      155.038 189.794 161.644  0.00  0.00    +0.075 A 
ATOM      6  C   LIG    1      155.092 191.191 161.717  0.00  0.00    +0.016 A 
ATOM      7  C   LIG    1      156.260 191.856 161.413  0.00  0.00    -0.002 A 
ENDROOT
BRANCH   5   8
ATOM      8  N   LIG    1      153.833 189.141 161.960  0.00  0.00    -0.175 NA
ATOM      9  C   LIG    1      152.637 189.229 161.222  0.00  0.00    +0.269 C 
ATOM     10  O   LIG    1      152.596 189.934 160.199  0.00  0.00    -0.268 OA
BRANCH   9  11
ATOM     11  C   LIG    1      151.449 188.489 161.669  0.00  0.00    +0.055 A 
ATOM     12  C   LIG    1      150.825 187.573 160.851  0.00  0.00    +0.004 A 
ATOM     13  C   LIG    1      149.695 186.866 161.272  0.00  0.00    -0.003 A 
ATOM     14  C   LIG    1      149.170 187.070 162.524  0.00  0.00    -0.006 A 
ATOM     15  C   LIG    1      149.785 187.983 163.346  0.00  0.00    -0.003 A 
ATOM     16  C   LIG    1      150.917 188.690 162.924  0.00  0.00    +0.004 A 
BRANCH  14  17
ATOM     17  C   LIG    1      147.977 186.324 162.965  0.00  0.00    +0.099 C 
BRANCH  17  18
ATOM     18  N   LIG    1      148.209 184.939 163.224  0.00  0.00    -0.267 NA
ATOM     19  C   LIG    1      148.775 184.675 164.532  0.00  0.00    +0.090 C 
ATOM     20  C   LIG    1      147.816 185.076 165.634  0.00  0.00    +0.090 C 
ATOM     21  N   LIG    1      146.437 184.812 165.235  0.00  0.00    -0.269 NA
ATOM     22  C   LIG    1      145.634 184.418 166.353  0.00  0.00    +0.090 C 
ATOM     23  C   LIG    1      146.396 183.727 164.251  0.00  0.00    +0.090 C 
ATOM     24  C   LIG    1      146.991 184.220 162.972  0.00  0.00    +0.090 C 
ENDBRANCH  17  18
ENDBRANCH  14  17
ENDBRANCH   9  11
ENDBRANCH   5   8
BRANCH   3  25
ATOM     25  N   LIG    1      158.481 189.119 160.579  0.00  0.00    -0.178 NA
BRANCH  25  26
ATOM     26  C   LIG    1      158.763 188.371 159.435  0.00  0.00    +0.241 A 
ATOM     27  N   LIG    1      158.992 187.041 159.603  0.00  0.00    -0.212 NA
ATOM     28  C   LIG    1      159.272 186.186 158.628  0.00  0.00    +0.087 A 
ATOM     29  C   LIG    1      159.340 186.683 157.322  0.00  0.00    +0.040 A 
ATOM     30  C   LIG    1      159.110 188.030 157.145  0.00  0.00    +0.103 A 
ATOM     31  N   LIG    1      158.832 188.823 158.193  0.00  0.00    -0.211 NA
BRANCH  28  32
ATOM     32  C   LIG    1      159.511 184.765 158.851  0.00  0.00    +0.037 A 
ATOM     33  C   LIG    1      160.545 184.135 158.195  0.00  0.00    +0.100 A 
ATOM     34  N   LIG    1      160.782 182.804 158.395  0.00  0.00    -0.242 NA
ATOM     35  C   LIG    1      160.035 182.080 159.216  0.00  0.00    +0.099 A 
ATOM     36  C   LIG    1      158.984 182.655 159.903  0.00  0.00    +0.021 A 
ATOM     37  C   LIG    1      158.736 184.015 159.704  0.00  0.00    +0.005 A 
ENDBRANCH  28  32
ENDBRANCH  25  26
ENDBRANCH   3  25
TORSDOF 7
ENDMDL
MODEL 3
REMARK VINA RESULT:      -7.6      1.744      2.062
REMARK  Name = 
REMARK                            x       y       z     vdW  Elec       q    Type
REMARK                         _______ _______ _______ _____ _____    ______ ____
ROOT
ATOM      1  C   LIG    1      201.746  82.825 148.111  0.00  0.00    +0.032 C 
ATOM      2  C   LIG    1      202.118  84.042 148.896  0.00  0.00    -0.006 A 
ATOM      3  C   LIG    1      201.937  84.081 150.285  0.00  0.00    +0.071 A 
ATOM      4  C   LIG    1      202.276  85.199 151.026  0.00  0.00    +0.033 A 
ATOM      5  C   LIG    1      202.800  86.289 150.379  0.00  0.00    +0.075 A 
ATOM      6  C   LIG    1      202.985  86.260 148.992  0.00  0.00    +0.016 A 
ATOM      7  C   LIG    1      202.641  85.138 148.270  0.00  0.00    -0.002 A 
ENDROOT
BRANCH   5   8
ATOM      8  N   LIG    1      203.158  87.448 151.092  0.00  0.00    -0.175 NA
ATOM      9  C   LIG    1      204.446  87.744 151.577  0.00  0.00    +0.269 C 
ATOM     10  O   LIG    1      205.377  86.942 151.383  0.00  0.00    -0.268 OA
BRANCH   9  11
ATOM     11  C   LIG    1      204.680  88.997 152.308  0.00  0.00    +0.055 A 
ATOM     12  C   LIG    1      204.006  90.153 151.983  0.00  0.00    +0.004 A 
ATOM     13  C   LIG    1      204.224  91.348 152.677  0.00  0.00    -0.003 A 
ATOM     14  C   LIG    1      205.127  91.400 153.710  0.00  0.00    -0.006 A 
ATOM     15  C   LIG    1      205.804  90.251 154.040  0.00  0.00    -0.003 A 
ATOM     16  C   LIG    1      205.585  89.056 153.346  0.00  0.00    +0.004 A 
BRANCH  14  17
ATOM     17  C   LIG    1      205.355  92.661 154.438  0.00  0.00    +0.099 C 
BRANCH  17  18
ATOM     18  N   LIG    1      204.209  93.163 155.125  0.00  0.00    -0.267 NA
ATOM     19  C   LIG    1      203.798  92.348 156.251  0.00  0.00    +0.090 C 
ATOM     20  C   LIG    1      204.863  92.325 157.329  0.00  0.00    +0.090 C 
ATOM     21  N   LIG    1      205.532  93.620 157.415  0.00  0.00    -0.269 NA
ATOM     22  C   LIG    1      205.908  93.927 158.762  0.00  0.00    +0.090 C 
ATOM     23  C   LIG    1      204.636  94.682 156.948  0.00  0.00    +0.090 C 
ATOM     24  C   LIG    1      204.452  94.535 155.472  0.00  0.00    +0.090 C 
ENDBRANCH  17  18
ENDBRANCH  14  17
ENDBRANCH   9  11
ENDBRANCH   5   8
BRANCH   3  25
ATOM     25  N   LIG    1      201.400  82.935 150.862  0.00  0.00    -0.178 NA
BRANCH  25  26
ATOM     26  C   LIG    1      201.890  82.126 151.890  0.00  0.00    +0.241 A 
ATOM     27  N   LIG    1      202.104  80.815 151.601  0.00  0.00    -0.212 NA
ATOM     28  C   LIG    1      202.564  79.910 152.454  0.00  0.00    +0.087 A 
ATOM     29  C   LIG    1      202.854  80.330 153.757  0.00  0.00    +0.040 A 
ATOM     30  C   LIG    1      202.639  81.657 154.057  0.00  0.00    +0.103 A 
ATOM     31  N   LIG    1      202.170  82.505 153.127  0.00  0.00    -0.211 NA
BRANCH  28  32
ATOM     32  C   LIG    1      202.780  78.512 152.104  0.00  0.00    +0.037 A 
ATOM     33  C   LIG    1      202.361  77.520 152.961  0.00  0.00    +0.100 A 
ATOM     34  N   LIG    1      202.556  76.204 152.646  0.00  0.00    -0.242 NA
ATOM     35  C   LIG    1      203.147  75.840 151.517  0.00  0.00    +0.099 A 
ATOM     36  C   LIG    1      203.589  76.788 150.616  0.00  0.00    +0.021 A 
ATOM     37  C   LIG    1      203.393  78.134 150.932  0.00  0.00    +0.005 A 
ENDBRANCH  28  32
ENDBRANCH  25  26
ENDBRANCH   3  25
TORSDOF 7
ENDMDL
MODEL 4
REMARK VINA RESULT:      -7.3      2.084      2.986
REMARK  Name = 
REMARK                            x       y       z     vdW  Elec       q    Type
REMARK                         _______ _______ _______ _____ _____    ______ ____
ROOT
ATOM      1  C   LIG    1      201.718  82.242 147.886  0.00  0.00    +0.032 C 
ATOM      2  C   LIG    1      202.075  83.420 148.733  0.00  0.00    -0.006 A 
ATOM      3  C   LIG    1      202.132  83.308 150.129  0.00  0.00    +0.071 A 
ATOM      4  C   LIG    1      202.462  84.389 150.927  0.00  0.00    +0.033 A 
ATOM      5  C   LIG    1      202.737  85.593 150.331  0.00  0.00    +0.075 A 
ATOM      6  C   LIG    1      202.683  85.716 148.938  0.00  0.00    +0.016 A 
ATOM      7  C   LIG    1      202.353  84.629 148.159  0.00  0.00    -0.002 A 
ENDROOT
BRANCH   5   8
ATOM      8  N   LIG    1      203.076  86.720 151.103  0.00  0.00    -0.175 NA
ATOM      9  C   LIG    1      204.353  87.309 151.174  0.00  0.00    +0.269 C 
ATOM     10  O   LIG    1      205.291  86.826 150.515  0.00  0.00    -0.268 OA
BRANCH   9  11
ATOM     11  C   LIG    1      204.565  88.488 152.024  0.00  0.00    +0.055 A 
ATOM     12  C   LIG    1      203.775  89.610 151.905  0.00  0.00    +0.004 A 
ATOM     13  C   LIG    1      203.974  90.734 152.713  0.00  0.00    -0.003 A 
ATOM     14  C   LIG    1      204.973  90.750 153.654  0.00  0.00    -0.006 A 
ATOM     15  C   LIG    1      205.766  89.635 153.779  0.00  0.00    -0.003 A 
ATOM     16  C   LIG    1      205.567  88.510 152.971  0.00  0.00    +0.004 A 
BRANCH  14  17
ATOM     17  C   LIG    1      205.180  91.937 154.504  0.00  0.00    +0.099 C 
BRANCH  17  18
ATOM     18  N   LIG    1      204.047  92.307 155.288  0.00  0.00    -0.267 NA
ATOM     19  C   LIG    1      203.839  91.466 156.451  0.00  0.00    +0.090 C 
ATOM     20  C   LIG    1      204.990  91.589 157.428  0.00  0.00    +0.090 C 
ATOM     21  N   LIG    1      205.501  92.956 157.449  0.00  0.00    -0.269 NA
ATOM     22  C   LIG    1      205.954  93.328 158.755  0.00  0.00    +0.090 C 
ATOM     23  C   LIG    1      204.445  93.895 157.058  0.00  0.00    +0.090 C 
ATOM     24  C   LIG    1      204.151  93.704 155.605  0.00  0.00    +0.090 C 
ENDBRANCH  17  18
ENDBRANCH  14  17
ENDBRANCH   9  11
ENDBRANCH   5   8
BRANCH   3  25
ATOM     25  N   LIG    1      201.839  82.053 150.652  0.00  0.00    -0.178 NA
BRANCH  25  26
ATOM     26  C   LIG    1      202.686  80.996 150.995  0.00  0.00    +0.241 A 
ATOM     27  N   LIG    1      202.518  80.439 152.223  0.00  0.00    -0.212 NA
ATOM     28  C   LIG    1      203.232  79.432 152.709  0.00  0.00    +0.087 A 
ATOM     29  C   LIG    1      204.240  78.896 151.900  0.00  0.00    +0.040 A 
ATOM     30  C   LIG    1      204.416  79.457 150.653  0.00  0.00    +0.103 A 
ATOM     31  N   LIG    1      203.644  80.477 150.244  0.00  0.00    -0.211 NA
BRANCH  28  32
ATOM     32  C   LIG    1      203.019  78.862 154.034  0.00  0.00    +0.037 A 
ATOM     33  C   LIG    1      203.037  79.681 155.140  0.00  0.00    +0.100 A 
ATOM     34  N   LIG    1      202.839  79.161 156.389  0.00  0.00    -0.242 NA
ATOM     35  C   LIG    1      202.624  77.867 156.578  0.00  0.00    +0.099 A 
ATOM     36  C   LIG    1      202.594  76.995 155.507  0.00  0.00    +0.021 A 
ATOM     37  C   LIG    1      202.796  77.519 154.229  0.00  0.00    +0.005 A 
ENDBRANCH  28  32
ENDBRANCH  25  26
ENDBRANCH   3  25
TORSDOF 7
ENDMDL
MODEL 5
REMARK VINA RESULT:      -7.1      3.668      5.370
REMARK  Name = 
REMARK                            x       y       z     vdW  Elec       q    Type
REMARK                         _______ _______ _______ _____ _____    ______ ____
ROOT
ATOM      1  C   LIG    1      203.581  78.667 149.852  0.00  0.00    +0.032 C 
ATOM      2  C   LIG    1      203.609  80.159 149.941  0.00  0.00    -0.006 A 
ATOM      3  C   LIG    1      203.071  80.821 151.053  0.00  0.00    +0.071 A 
ATOM      4  C   LIG    1      203.090  82.201 151.149  0.00  0.00    +0.033 A 
ATOM      5  C   LIG    1      203.647  82.930 150.131  0.00  0.00    +0.075 A 
ATOM      6  C   LIG    1      204.186  82.279 149.015  0.00  0.00    +0.016 A 
ATOM      7  C   LIG    1      204.160  80.903 148.935  0.00  0.00    -0.002 A 
ENDROOT
BRANCH   5   8
ATOM      8  N   LIG    1      203.686  84.335 150.186  0.00  0.00    -0.175 NA
ATOM      9  C   LIG    1      202.720  85.203 149.643  0.00  0.00    +0.269 C 
ATOM     10  O   LIG    1      201.731  84.731 149.055  0.00  0.00    -0.268 OA
BRANCH   9  11
ATOM     11  C   LIG    1      202.888  86.657 149.775  0.00  0.00    +0.055 A 
ATOM     12  C   LIG    1      202.129  87.389 150.660  0.00  0.00    +0.004 A 
ATOM     13  C   LIG    1      202.287  88.772 150.789  0.00  0.00    -0.003 A 
ATOM     14  C   LIG    1      203.211  89.444 150.028  0.00  0.00    -0.006 A 
ATOM     15  C   LIG    1      203.972  88.721 149.142  0.00  0.00    -0.003 A 
ATOM     16  C   LIG    1      203.814  87.336 149.013  0.00  0.00    +0.004 A 
BRANCH  14  17
ATOM     17  C   LIG    1      203.374  90.903 150.166  0.00  0.00    +0.099 C 
BRANCH  17  18
ATOM     18  N   LIG    1      203.928  91.319 151.414  0.00  0.00    -0.267 NA
ATOM     19  C   LIG    1      205.224  90.738 151.703  0.00  0.00    +0.090 C 
ATOM     20  C   LIG    1      206.263  91.189 150.697  0.00  0.00    +0.090 C 
ATOM     21  N   LIG    1      206.022  92.571 150.296  0.00  0.00    -0.269 NA
ATOM     22  C   LIG    1      207.248  93.264 150.040  0.00  0.00    +0.090 C 
ATOM     23  C   LIG    1      205.317  93.290 151.361  0.00  0.00    +0.090 C 
ATOM     24  C   LIG    1      203.924  92.755 151.455  0.00  0.00    +0.090 C 
ENDBRANCH  17  18
ENDBRANCH  14  17
ENDBRANCH   9  11
ENDBRANCH   5   8
BRANCH   3  25
ATOM     25  N   LIG    1      202.526  80.008 152.041  0.00  0.00    -0.178 NA
BRANCH  25  26
ATOM     26  C   LIG    1      202.928  79.797 153.362  0.00  0.00    +0.241 A 
ATOM     27  N   LIG    1      203.437  78.575 153.668  0.00  0.00    -0.212 NA
ATOM     28  C   LIG    1      203.865  78.205 154.868  0.00  0.00    +0.087 A 
ATOM     29  C   LIG    1      203.790  79.141 155.905  0.00  0.00    +0.040 A 
ATOM     30  C   LIG    1      203.274  80.382 155.602  0.00  0.00    +0.103 A 
ATOM     31  N   LIG    1      202.863  80.669 154.355  0.00  0.00    -0.211 NA
BRANCH  28  32
ATOM     32  C   LIG    1      204.406  76.882 155.156  0.00  0.00    +0.037 A 
ATOM     33  C   LIG    1      204.093  75.823 154.334  0.00  0.00    +0.100 A 
ATOM     34  N   LIG    1      204.593  74.577 154.591  0.00  0.00    -0.242 NA
ATOM     35  C   LIG    1      205.387  74.345 155.626  0.00  0.00    +0.099 A 
ATOM     36  C   LIG    1      205.738  75.368 156.486  0.00  0.00    +0.021 A 
ATOM     37  C   LIG    1      205.231  76.643 156.230  0.00  0.00    +0.005 A 
ENDBRANCH  28  32
ENDBRANCH  25  26
ENDBRANCH   3  25
TORSDOF 7
ENDMDL
MODEL 6
REMARK VINA RESULT:      -7.0     93.929     95.986
REMARK  Name = 
REMARK                            x       y       z     vdW  Elec       q    Type
REMARK                         _______ _______ _______ _____ _____    ______ ____
ROOT
ATOM      1  C   LIG    1      187.337 178.999 161.913  0.00  0.00    +0.032 C 
ATOM      2  C   LIG    1      186.602 178.956 160.612  0.00  0.00    -0.006 A 
ATOM      3  C   LIG    1      185.368 179.604 160.465  0.00  0.00    +0.071 A 
ATOM      4  C   LIG    1      184.675 179.574 159.268  0.00  0.00    +0.033 A 
ATOM      5  C   LIG    1      185.214 178.892 158.207  0.00  0.00    +0.075 A 
ATOM      6  C   LIG    1      186.445 178.241 158.343  0.00  0.00    +0.016 A 
ATOM      7  C   LIG    1      187.122 178.282 159.543  0.00  0.00    -0.002 A 
ENDROOT
BRANCH   5   8
ATOM      8  N   LIG    1      184.544 178.834 156.971  0.00  0.00    -0.175 NA
ATOM      9  C   LIG    1      184.602 179.815 155.962  0.00  0.00    +0.269 C 
ATOM     10  O   LIG    1      185.290 180.836 156.136  0.00  0.00    -0.268 OA
BRANCH   9  11
ATOM     11  C   LIG    1      183.849 179.623 154.715  0.00  0.00    +0.055 A 
ATOM     12  C   LIG    1      184.006 178.489 153.949  0.00  0.00    +0.004 A 
ATOM     13  C   LIG    1      183.290 178.303 152.762  0.00  0.00    -0.003 A 
ATOM     14  C   LIG    1      182.405 179.256 152.324  0.00  0.00    -0.006 A 
ATOM     15  C   LIG    1      182.243 180.390 153.081  0.00  0.00    -0.003 A 
ATOM     16  C   LIG    1      182.958 180.577 154.270  0.00  0.00    +0.004 A 
BRANCH  14  17
ATOM     17  C   LIG    1      181.653 179.056 151.072  0.00  0.00    +0.099 C 
BRANCH  17  18
ATOM     18  N   LIG    1      181.015 180.231 150.572  0.00  0.00    -0.267 NA
ATOM     19  C   LIG    1      181.496 180.650 149.270  0.00  0.00    +0.090 C 
ATOM     20  C   LIG    1      181.184 179.613 148.211  0.00  0.00    +0.090 C 
ATOM     21  N   LIG    1      179.897 178.979 148.478  0.00  0.00    -0.269 NA
ATOM     22  C   LIG    1      179.215 178.644 147.265  0.00  0.00    +0.090 C 
ATOM     23  C   LIG    1      179.035 179.888 149.239  0.00  0.00    +0.090 C 
ATOM     24  C   LIG    1      179.594 180.031 150.619  0.00  0.00    +0.090 C 
ENDBRANCH  17  18
ENDBRANCH  14  17
ENDBRANCH   9  11
ENDBRANCH   5   8
BRANCH   3  25
ATOM     25  N   LIG    1      184.893 180.273 161.588  0.00  0.00    -0.178 NA
BRANCH  25  26
ATOM     26  C   LIG    1      183.584 180.498 162.019  0.00  0.00    +0.241 A 
ATOM     27  N   LIG    1      183.158 179.801 163.106  0.00  0.00    -0.212 NA
ATOM     28  C   LIG    1      181.951 179.892 163.646  0.00  0.00    +0.087 A 
ATOM     29  C   LIG    1      181.036 180.772 163.058  0.00  0.00    +0.040 A 
ATOM     30  C   LIG    1      181.460 181.482 161.955  0.00  0.00    +0.103 A 
ATOM     31  N   LIG    1      182.705 181.325 161.475  0.00  0.00    -0.211 NA
BRANCH  28  32
ATOM     32  C   LIG    1      181.533 179.125 164.814  0.00  0.00    +0.037 A 
ATOM     33  C   LIG    1      182.424 178.272 165.425  0.00  0.00    +0.100 A 
ATOM     34  N   LIG    1      182.048 177.547 166.521  0.00  0.00    -0.242 NA
ATOM     35  C   LIG    1      180.827 177.638 167.030  0.00  0.00    +0.099 A 
ATOM     36  C   LIG    1      179.889 178.477 166.462  0.00  0.00    +0.021 A 
ATOM     37  C   LIG    1      180.267 179.221 165.341  0.00  0.00    +0.005 A 
ENDBRANCH  28  32
ENDBRANCH  25  26
ENDBRANCH   3  25
TORSDOF 7
ENDMDL
MODEL 7
REMARK VINA RESULT:      -6.8     24.857     32.505
REMARK  Name = 
REMARK                            x       y       z     vdW  Elec       q    Type
REMARK                         _______ _______ _______ _____ _____    ______ ____
ROOT
ATOM      1  C   LIG    1      200.441  94.385 186.950  0.00  0.00    +0.032 C 
ATOM      2  C   LIG    1      201.233  94.516 185.690  0.00  0.00    -0.006 A 
ATOM      3  C   LIG    1      201.106  95.652 184.879  0.00  0.00    +0.071 A 
ATOM      4  C   LIG    1      201.833  95.789 183.709  0.00  0.00    +0.033 A 
ATOM      5  C   LIG    1      202.694  94.787 183.343  0.00  0.00    +0.075 A 
ATOM      6  C   LIG    1      202.829  93.648 184.146  0.00  0.00    +0.016 A 
ATOM      7  C   LIG    1      202.097  93.529 185.307  0.00  0.00    -0.002 A 
ENDROOT
BRANCH   5   8
ATOM      8  N   LIG    1      203.452  94.882 182.162  0.00  0.00    -0.175 NA
ATOM      9  C   LIG    1      204.750  95.420 182.064  0.00  0.00    +0.269 C 
ATOM     10  O   LIG    1      205.312  95.860 183.083  0.00  0.00    -0.268 OA
BRANCH   9  11
ATOM     11  C   LIG    1      205.428  95.457 180.761  0.00  0.00    +0.055 A 
ATOM     12  C   LIG    1      206.640  96.091 180.601  0.00  0.00    +0.004 A 
ATOM     13  C   LIG    1      207.289  96.128 179.362  0.00  0.00    -0.003 A 
ATOM     14  C   LIG    1      206.728  95.529 178.262  0.00  0.00    -0.006 A 
ATOM     15  C   LIG    1      205.518  94.895 178.413  0.00  0.00    -0.003 A 
ATOM     16  C   LIG    1      204.869  94.857 179.653  0.00  0.00    +0.004 A 
BRANCH  14  17
ATOM     17  C   LIG    1      207.414  95.570 176.958  0.00  0.00    +0.099 C 
BRANCH  17  18
ATOM     18  N   LIG    1      206.539  95.636 175.832  0.00  0.00    -0.267 NA
ATOM     19  C   LIG    1      206.157  96.985 175.464  0.00  0.00    +0.090 C 
ATOM     20  C   LIG    1      207.359  97.790 175.014  0.00  0.00    +0.090 C 
ATOM     21  N   LIG    1      208.299  96.944 174.286  0.00  0.00    -0.269 NA
ATOM     22  C   LIG    1      208.957  97.670 173.241  0.00  0.00    +0.090 C 
ATOM     23  C   LIG    1      207.592  95.818 173.671  0.00  0.00    +0.090 C 
ATOM     24  C   LIG    1      207.132  94.895 174.753  0.00  0.00    +0.090 C 
ENDBRANCH  17  18
ENDBRANCH  14  17
ENDBRANCH   9  11
ENDBRANCH   5   8
BRANCH   3  25
ATOM     25  N   LIG    1      200.211  96.621 185.322  0.00  0.00    -0.178 NA
BRANCH  25  26
ATOM     26  C   LIG    1      198.841  96.759 185.091  0.00  0.00    +0.241 A 
ATOM     27  N   LIG    1      198.309  98.001 185.234  0.00  0.00    -0.212 NA
ATOM     28  C   LIG    1      197.032  98.310 185.055  0.00  0.00    +0.087 A 
ATOM     29  C   LIG    1      196.156  97.282 184.689  0.00  0.00    +0.040 A 
ATOM     30  C   LIG    1      196.689  96.020 184.543  0.00  0.00    +0.103 A 
ATOM     31  N   LIG    1      197.998  95.799 184.745  0.00  0.00    -0.211 NA
BRANCH  28  32
ATOM     32  C   LIG    1      196.500  99.658 185.219  0.00  0.00    +0.037 A 
ATOM     33  C   LIG    1      195.896 100.015 186.403  0.00  0.00    +0.100 A 
ATOM     34  N   LIG    1      195.394 101.275 186.572  0.00  0.00    -0.242 NA
ATOM     35  C   LIG    1      195.470 102.188 185.614  0.00  0.00    +0.099 A 
ATOM     36  C   LIG    1      196.065 101.891 184.404  0.00  0.00    +0.021 A 
ATOM     37  C   LIG    1      196.580 100.605 184.225  0.00  0.00    +0.005 A 
ENDBRANCH  28  32
ENDBRANCH  25  26
ENDBRANCH   3  25
TORSDOF 7
ENDMDL
MODEL 8
REMARK VINA RESULT:      -6.6     68.613     71.799
REMARK  Name = 
REMARK                            x       y       z     vdW  Elec       q    Type
REMARK                         _______ _______ _______ _____ _____    ______ ____
ROOT
ATOM      1  C   LIG    1      187.232 155.553 142.966  0.00  0.00    +0.032 C 
ATOM      2  C   LIG    1      186.341 155.014 144.039  0.00  0.00    -0.006 A 
ATOM      3  C   LIG    1      185.016 154.656 143.758  0.00  0.00    +0.071 A 
ATOM      4  C   LIG    1      184.180 154.156 144.740  0.00  0.00    +0.033 A 
ATOM      5  C   LIG    1      184.665 154.011 146.014  0.00  0.00    +0.075 A 
ATOM      6  C   LIG    1      185.988 154.366 146.306  0.00  0.00    +0.016 A 
ATOM      7  C   LIG    1      186.807 154.862 145.315  0.00  0.00    -0.002 A 
ENDROOT
BRANCH   5   8
ATOM      8  N   LIG    1      183.851 153.507 147.044  0.00  0.00    -0.175 NA
ATOM      9  C   LIG    1      183.638 152.144 147.327  0.00  0.00    +0.269 C 
ATOM     10  O   LIG    1      184.197 151.278 146.632  0.00  0.00    -0.268 OA
BRANCH   9  11
ATOM     11  C   LIG    1      182.758 151.759 148.439  0.00  0.00    +0.055 A 
ATOM     12  C   LIG    1      183.208 151.754 149.741  0.00  0.00    +0.004 A 
ATOM     13  C   LIG    1      182.373 151.388 150.802  0.00  0.00    -0.003 A 
ATOM     14  C   LIG    1      181.071 151.020 150.571  0.00  0.00    -0.006 A 
ATOM     15  C   LIG    1      180.615 151.022 149.275  0.00  0.00    -0.003 A 
ATOM     16  C   LIG    1      181.450 151.388 148.213  0.00  0.00    +0.004 A 
BRANCH  14  17
ATOM     17  C   LIG    1      180.194 150.635 151.692  0.00  0.00    +0.099 C 
BRANCH  17  18
ATOM     18  N   LIG    1      178.825 151.002 151.524  0.00  0.00    -0.267 NA
ATOM     19  C   LIG    1      177.892 149.932 151.815  0.00  0.00    +0.090 C 
ATOM     20  C   LIG    1      177.963 149.524 153.272  0.00  0.00    +0.090 C 
ATOM     21  N   LIG    1      178.214 150.687 154.118  0.00  0.00    -0.269 NA
ATOM     22  C   LIG    1      177.553 150.567 155.383  0.00  0.00    +0.090 C 
ATOM     23  C   LIG    1      177.715 151.901 153.466  0.00  0.00    +0.090 C 
ATOM     24  C   LIG    1      178.580 152.197 152.283  0.00  0.00    +0.090 C 
ENDBRANCH  17  18
ENDBRANCH  14  17
ENDBRANCH   9  11
ENDBRANCH   5   8
BRANCH   3  25
ATOM     25  N   LIG    1      184.602 154.835 142.441  0.00  0.00    -0.178 NA
BRANCH  25  26
ATOM     26  C   LIG    1      183.339 155.123 141.923  0.00  0.00    +0.241 A 
ATOM     27  N   LIG    1      182.677 156.186 142.454  0.00  0.00    -0.212 NA
ATOM     28  C   LIG    1      181.473 156.599 142.081  0.00  0.00    +0.087 A 
ATOM     29  C   LIG    1      180.825 155.890 141.063  0.00  0.00    +0.040 A 
ATOM     30  C   LIG    1      181.490 154.812 140.521  0.00  0.00    +0.103 A 
ATOM     31  N   LIG    1      182.711 154.465 140.961  0.00  0.00    -0.211 NA
BRANCH  28  32
ATOM     32  C   LIG    1      180.797 157.745 142.677  0.00  0.00    +0.037 A 
ATOM     33  C   LIG    1      181.418 158.462 143.674  0.00  0.00    +0.100 A 
ATOM     34  N   LIG    1      180.797 159.540 144.242  0.00  0.00    -0.242 NA
ATOM     35  C   LIG    1      179.590 159.928 143.858  0.00  0.00    +0.099 A 
ATOM     36  C   LIG    1      178.915 159.249 142.862  0.00  0.00    +0.021 A 
ATOM     37  C   LIG    1      179.544 158.148 142.278  0.00  0.00    +0.005 A 
ENDBRANCH  28  32
ENDBRANCH  25  26
ENDBRANCH   3  25
TORSDOF 7
ENDMDL
MODEL 9
REMARK VINA RESULT:      -6.6     18.384     22.595
REMARK  Name = 
REMARK                            x       y       z     vdW  Elec       q    Type
REMARK                         _______ _______ _______ _____ _____    ______ ____
ROOT
ATOM      1  C   LIG    1      189.247  89.968 153.434  0.00  0.00    +0.032 C 
ATOM      2  C   LIG    1      187.923  89.284 153.308  0.00  0.00    -0.006 A 
ATOM      3  C   LIG    1      187.461  88.427 154.316  0.00  0.00    +0.071 A 
ATOM      4  C   LIG    1      186.239  87.786 154.214  0.00  0.00    +0.033 A 
ATOM      5  C   LIG    1      185.469  88.000 153.099  0.00  0.00    +0.075 A 
ATOM      6  C   LIG    1      185.922  88.854 152.087  0.00  0.00    +0.016 A 
ATOM      7  C   LIG    1      187.142  89.484 152.205  0.00  0.00    -0.002 A 
ENDROOT
BRANCH   5   8
ATOM      8  N   LIG    1      184.220  87.370 152.953  0.00  0.00    -0.175 NA
ATOM      9  C   LIG    1      184.019  86.034 152.556  0.00  0.00    +0.269 C 
ATOM     10  O   LIG    1      185.001  85.313 152.303  0.00  0.00    -0.268 OA
BRANCH   9  11
ATOM     11  C   LIG    1      182.654  85.504 152.445  0.00  0.00    +0.055 A 
ATOM     12  C   LIG    1      181.558  86.338 152.448  0.00  0.00    +0.004 A 
ATOM     13  C   LIG    1      180.257  85.837 152.341  0.00  0.00    -0.003 A 
ATOM     14  C   LIG    1      180.034  84.487 152.231  0.00  0.00    -0.006 A 
ATOM     15  C   LIG    1      181.122  83.648 152.228  0.00  0.00    -0.003 A 
ATOM     16  C   LIG    1      182.425  84.149 152.334  0.00  0.00    +0.004 A 
BRANCH  14  17
ATOM     17  C   LIG    1      178.661  83.963 152.119  0.00  0.00    +0.099 C 
BRANCH  17  18
ATOM     18  N   LIG    1      177.983  83.812 153.366  0.00  0.00    -0.267 NA
ATOM     19  C   LIG    1      177.048  84.881 153.657  0.00  0.00    +0.090 C 
ATOM     20  C   LIG    1      175.917  84.908 152.651  0.00  0.00    +0.090 C 
ATOM     21  N   LIG    1      175.558  83.552 152.246  0.00  0.00    -0.269 NA
ATOM     22  C   LIG    1      174.155  83.435 151.989  0.00  0.00    +0.090 C 
ATOM     23  C   LIG    1      175.899  82.602 153.309  0.00  0.00    +0.090 C 
ATOM     24  C   LIG    1      177.387  82.506 153.404  0.00  0.00    +0.090 C 
ENDBRANCH  17  18
ENDBRANCH  14  17
ENDBRANCH   9  11
ENDBRANCH   5   8
BRANCH   3  25
ATOM     25  N   LIG    1      188.303  88.264 155.412  0.00  0.00    -0.178 NA
BRANCH  25  26
ATOM     26  C   LIG    1      188.721  87.104 156.066  0.00  0.00    +0.241 A 
ATOM     27  N   LIG    1      187.796  86.442 156.810  0.00  0.00    -0.212 NA
ATOM     28  C   LIG    1      188.020  85.328 157.494  0.00  0.00    +0.087 A 
ATOM     29  C   LIG    1      189.309  84.785 157.452  0.00  0.00    +0.040 A 
ATOM     30  C   LIG    1      190.253  85.451 156.700  0.00  0.00    +0.103 A 
ATOM     31  N   LIG    1      189.934  86.576 156.038  0.00  0.00    -0.211 NA
BRANCH  28  32
ATOM     32  C   LIG    1      186.999  84.648 158.280  0.00  0.00    +0.037 A 
ATOM     33  C   LIG    1      185.856  85.324 158.646  0.00  0.00    +0.100 A 
ATOM     34  N   LIG    1      184.889  84.699 159.384  0.00  0.00    -0.242 NA
ATOM     35  C   LIG    1      185.014  83.437 159.768  0.00  0.00    +0.099 A 
ATOM     36  C   LIG    1      186.136  82.706 159.431  0.00  0.00    +0.021 A 
ATOM     37  C   LIG    1      187.128  83.338 158.678  0.00  0.00    +0.005 A 
ENDBRANCH  28  32
ENDBRANCH  25  26
ENDBRANCH   3  25
TORSDOF 7
ENDMDL
