REMARK VINA RESULT:      -7.7      2.579      3.999
REMARK  Name = ZINC000049408611
REMARK                            x       y       z     vdW  Elec       q    Type
REMARK                         _______ _______ _______ _____ _____    ______ ____
ROOT
ATOM      1  N   LIG    1      169.932 147.438 146.531  0.00  0.00    -0.199 N 
ENDROOT
BRANCH   1   2
ATOM      2  C   LIG    1      170.244 148.762 146.889  0.00  0.00    +0.053 A 
ATOM      3  C   LIG    1      169.281 149.774 146.925  0.00  0.00    +0.044 A 
ATOM      4  C   LIG    1      169.660 151.059 147.305  0.00  0.00    +0.043 A 
ATOM      5 CL   LIG    1      168.479 152.323 147.359  0.00  0.00    -0.083 Cl
ATOM      6  C   LIG    1      170.986 151.334 147.651  0.00  0.00    +0.020 A 
ATOM      7  C   LIG    1      171.938 150.319 147.608  0.00  0.00    +0.003 A 
ATOM      8  C   LIG    1      171.572 149.033 147.225  0.00  0.00    +0.025 A 
ENDBRANCH   1   2
BRANCH   1  10
ATOM      9  O   LIG    1      167.813 146.393 147.368  0.00  0.00    -0.150 OA
ATOM     10  S   LIG    1      169.164 146.601 147.751  0.00  0.00    +0.076 S 
ATOM     11  O   LIG    1      169.377 147.285 148.977  0.00  0.00    -0.150 OA
BRANCH  10  12
ATOM     12  C   LIG    1      169.997 144.997 147.812  0.00  0.00    +0.125 A 
ATOM     13  C   LIG    1      169.391 143.916 148.400  0.00  0.00    +0.123 A 
ATOM     14  N   LIG    1      170.068 142.694 148.421  0.00  0.00    -0.287 N 
ATOM     15  C   LIG    1      169.688 141.517 148.912  0.00  0.00    +0.229 A 
ATOM     16  N   LIG    1      170.623 140.640 148.706  0.00  0.00    -0.137 NA
ATOM     17  N   LIG    1      171.652 141.265 148.061  0.00  0.00    -0.130 NA
ATOM     18  C   LIG    1      171.298 142.519 147.896  0.00  0.00    +0.161 A 
ATOM     19  C   LIG    1      171.949 143.638 147.299  0.00  0.00    +0.050 A 
ATOM     20  C   LIG    1      171.318 144.849 147.260  0.00  0.00    +0.034 A 
ENDBRANCH  10  12
ENDBRANCH   1  10
BRANCH   1  21
ATOM     21  C   LIG    1      169.105 147.282 145.328  0.00  0.00    +0.166 C 
BRANCH  21  22
ATOM     22  C   LIG    1      169.825 146.258 144.469  0.00  0.00    -0.028 A 
ATOM     23  C   LIG    1      169.268 144.999 144.242  0.00  0.00    +0.005 A 
ATOM     24  C   LIG    1      169.933 144.070 143.447  0.00  0.00    +0.000 A 
ATOM     25  C   LIG    1      171.159 144.393 142.875  0.00  0.00    +0.000 A 
ATOM     26  C   LIG    1      171.719 145.647 143.096  0.00  0.00    +0.000 A 
ATOM     27  C   LIG    1      171.053 146.577 143.889  0.00  0.00    +0.005 A 
ENDBRANCH  21  22
ENDBRANCH   1  21
TORSDOF 5
