REMARK VINA RESULT:      -7.3      0.000      0.000
REMARK  Name = ZINC000193545175
REMARK                            x       y       z     vdW  Elec       q    Type
REMARK                         _______ _______ _______ _____ _____    ______ ____
ROOT
ATOM      1  C   LIG    1      169.233 151.243 146.828  0.00  0.00    +0.171 A 
ATOM      2  N   LIG    1      169.288 149.911 146.515  0.00  0.00    -0.204 NA
ATOM      3  C   LIG    1      170.109 149.759 145.536  0.00  0.00    +0.185 A 
ATOM      4  S   LIG    1      170.826 151.213 144.982  0.00  0.00    +0.050 S 
ATOM      5  N   LIG    1      169.981 152.049 146.118  0.00  0.00    -0.187 NA
ENDROOT
BRANCH   1   8
ATOM      6  C   LIG    1      167.520 153.575 149.257  0.00  0.00    +0.121 A 
ATOM      7  C   LIG    1      168.338 153.111 148.229  0.00  0.00    +0.057 A 
ATOM      8  C   LIG    1      168.375 151.743 147.912  0.00  0.00    +0.023 A 
ATOM      9  C   LIG    1      167.566 150.870 148.664  0.00  0.00    +0.012 A 
ATOM     10  C   LIG    1      166.753 151.343 149.689  0.00  0.00    +0.004 A 
ATOM     11  C   LIG    1      166.726 152.700 149.990  0.00  0.00    +0.045 A 
BRANCH   6  13
ATOM     12  C   LIG    1      166.442 155.508 150.430  0.00  0.00    +0.277 C 
ATOM     13  O   LIG    1      167.458 154.908 149.594  0.00  0.00    -0.495 OA
ENDBRANCH   6  13
ENDBRANCH   1   8
BRANCH   3  14
ATOM     14  N   LIG    1      170.328 148.472 145.043  0.00  0.00    -0.259 N 
ATOM     15  H   LIG    1      169.657 148.170 144.331  0.00  0.00    +0.157 HD
ATOM     16  C   LIG    1      171.318 147.586 145.373  0.00  0.00    +0.254 C 
ATOM     17  O   LIG    1      172.143 147.934 146.204  0.00  0.00    -0.270 OA
BRANCH  16  18
ATOM     18  C   LIG    1      171.364 146.282 144.728  0.00  0.00    +0.089 A 
ATOM     19  C   LIG    1      171.496 145.032 145.272  0.00  0.00    +0.182 A 
ATOM     20 BR   LIG    1      171.683 144.401 147.044  0.00  0.00    -0.008 Br
ATOM     21  O   LIG    1      171.487 144.105 144.291  0.00  0.00    -0.456 OA
ATOM     22  C   LIG    1      171.352 144.753 143.110  0.00  0.00    +0.197 A 
ATOM     23  C   LIG    1      171.275 146.081 143.337  0.00  0.00    +0.055 A 
ENDBRANCH  16  18
ENDBRANCH   3  14
TORSDOF 4
