REMARK VINA RESULT:      -7.6     38.185     41.439
REMARK  Name = ZINC000186872603
REMARK                            x       y       z     vdW  Elec       q    Type
REMARK                         _______ _______ _______ _____ _____    ______ ____
ROOT
ATOM      1  N   LIG    1      186.943 112.485 148.022  0.00  0.00    -0.297 N 
ATOM      2  C   LIG    1      186.291 111.292 147.421  0.00  0.00    +0.123 C 
ATOM      3  C   LIG    1      185.950 111.616 145.944  0.00  0.00    +0.103 C 
ATOM      4  N   LIG    1      185.054 112.805 145.861  0.00  0.00    -0.299 NA
ATOM      5  C   LIG    1      185.747 113.989 146.462  0.00  0.00    +0.103 C 
ATOM      6  C   LIG    1      186.137 113.732 147.943  0.00  0.00    +0.123 C 
ENDROOT
BRANCH   1  10
ATOM      7  C   LIG    1      187.944 113.525 152.569  0.00  0.00    +0.066 C 
ATOM      8  C   LIG    1      188.278 112.793 151.292  0.00  0.00    +0.044 A 
ATOM      9  N   LIG    1      187.492 112.959 150.249  0.00  0.00    -0.220 NA
ATOM     10  C   LIG    1      187.781 112.308 149.116  0.00  0.00    +0.218 A 
ATOM     11  N   LIG    1      188.834 111.494 148.979  0.00  0.00    -0.219 NA
ATOM     12  C   LIG    1      189.640 111.305 150.011  0.00  0.00    +0.049 A 
ATOM     13  C   LIG    1      189.380 111.956 151.207  0.00  0.00    +0.046 A 
BRANCH  12  14
ATOM     14  C   LIG    1      190.843 110.376 149.873  0.00  0.00    +0.032 C 
ATOM     15  C   LIG    1      190.500 109.009 150.486  0.00  0.00    +0.014 C 
ATOM     16  C   LIG    1      192.052 111.005 150.586  0.00  0.00    +0.014 C 
ENDBRANCH  12  14
ENDBRANCH   1  10
BRANCH   4  17
ATOM     17  C   LIG    1      183.704 112.538 146.403  0.00  0.00    +0.085 C 
BRANCH  17  18
ATOM     18  C   LIG    1      182.787 113.552 145.694  0.00  0.00    +0.025 C 
BRANCH  18  19
ATOM     19  C   LIG    1      181.340 113.321 146.171  0.00  0.00    +0.097 C 
BRANCH  19  20
ATOM     20  C   LIG    1      181.000 111.857 145.990  0.00  0.00    +0.197 A 
ATOM     21  O   LIG    1      180.801 111.085 147.092  0.00  0.00    -0.440 OA
ATOM     22  C   LIG    1      180.515 109.871 146.611  0.00  0.00    +0.155 A 
ATOM     23  C   LIG    1      180.222 108.694 147.297  0.00  0.00    +0.048 A 
ATOM     24  C   LIG    1      179.957 107.557 146.540  0.00  0.00    +0.004 A 
ATOM     25  C   LIG    1      179.993 107.615 145.132  0.00  0.00    +0.002 A 
ATOM     26  C   LIG    1      180.289 108.808 144.477  0.00  0.00    +0.031 A 
ATOM     27  C   LIG    1      180.552 109.948 145.241  0.00  0.00    +0.110 A 
ATOM     28  N   LIG    1      180.865 111.237 144.877  0.00  0.00    -0.213 NA
ENDBRANCH  19  20
ENDBRANCH  18  19
ENDBRANCH  17  18
ENDBRANCH   4  17
TORSDOF 6
