REMARK VINA RESULT:      -7.6      2.099      2.602
REMARK  Name = ZINC000049483826
REMARK                            x       y       z     vdW  Elec       q    Type
REMARK                         _______ _______ _______ _____ _____    ______ ____
ROOT
ATOM      1  N   LIG    1      169.588 148.612 145.867  0.00  0.00    -0.175 NA
ATOM      2  C   LIG    1      169.159 149.895 145.302  0.00  0.00    +0.123 C 
ATOM      3  C   LIG    1      169.718 150.544 146.593  0.00  0.00    +0.109 C 
ATOM      4  C   LIG    1      169.673 149.133 147.235  0.00  0.00    +0.123 C 
ENDROOT
BRANCH   3   5
ATOM      5  C   LIG    1      168.746 151.507 147.231  0.00  0.00    +0.233 A 
ATOM      6  O   LIG    1      168.716 152.757 146.823  0.00  0.00    -0.337 OA
ATOM      7  N   LIG    1      167.799 153.392 147.520  0.00  0.00    -0.056 NA
ATOM      8  C   LIG    1      167.306 152.509 148.321  0.00  0.00    +0.209 A 
ATOM      9  N   LIG    1      167.896 151.298 148.152  0.00  0.00    -0.191 NA
BRANCH   8  10
ATOM     10  C   LIG    1      166.247 152.779 149.285  0.00  0.00    +0.060 A 
ATOM     11  S   LIG    1      166.269 154.192 150.299  0.00  0.00    -0.093 S 
ATOM     12  C   LIG    1      164.782 153.736 151.045  0.00  0.00    +0.046 A 
ATOM     13  C   LIG    1      164.300 152.563 150.538  0.00  0.00    +0.008 A 
ATOM     14  C   LIG    1      165.128 152.021 149.544  0.00  0.00    +0.019 A 
ENDBRANCH   8  10
ENDBRANCH   3   5
BRANCH   1  15
ATOM     15  S   LIG    1      170.775 147.705 145.182  0.00  0.00    +0.061 S 
ATOM     16  O   LIG    1      171.177 148.316 143.964  0.00  0.00    -0.153 OA
ATOM     17  O   LIG    1      171.793 147.513 146.158  0.00  0.00    -0.153 OA
BRANCH  15  20
ATOM     18  C   LIG    1      171.728 145.524 143.038  0.00  0.00    +0.046 C 
ATOM     19  C   LIG    1      170.488 145.210 143.860  0.00  0.00    -0.024 A 
ATOM     20  C   LIG    1      169.992 146.105 144.829  0.00  0.00    +0.110 A 
ATOM     21  C   LIG    1      168.850 145.749 145.555  0.00  0.00    +0.048 A 
ATOM     22  C   LIG    1      168.208 144.536 145.324  0.00  0.00    +0.043 A 
ATOM     23 CL   LIG    1      166.792 144.123 146.229  0.00  0.00    -0.083 Cl
ATOM     24  C   LIG    1      168.701 143.655 144.366  0.00  0.00    +0.020 A 
ATOM     25  C   LIG    1      169.836 143.994 143.641  0.00  0.00    +0.007 A 
ENDBRANCH  15  20
ENDBRANCH   1  15
TORSDOF 4
