REMARK VINA RESULT:      -6.7      2.839      7.848
REMARK  Name = ZINC000000623420
REMARK                            x       y       z     vdW  Elec       q    Type
REMARK                         _______ _______ _______ _____ _____    ______ ____
ROOT
ATOM      1  C   LIG    1      169.552 148.946 147.300  0.00  0.00    +0.102 A 
ATOM      2  C   LIG    1      169.314 150.237 146.849  0.00  0.00    -0.014 A 
ATOM      3  C   LIG    1      169.980 150.826 145.611  0.00  0.00    +0.046 C 
ATOM      4  C   LIG    1      168.388 150.959 147.654  0.00  0.00    +0.091 A 
ATOM      5  C   LIG    1      167.907 150.162 148.690  0.00  0.00    +0.087 A 
ATOM      6  S   LIG    1      168.579 148.580 148.694  0.00  0.00    -0.066 S 
ENDROOT
BRANCH   5   7
ATOM      7  N   LIG    1      166.948 150.559 149.643  0.00  0.00    -0.275 N 
ATOM      8  H   LIG    1      167.324 150.943 150.524  0.00  0.00    +0.156 HD
ATOM      9  C   LIG    1      165.567 150.484 149.594  0.00  0.00    +0.249 C 
ATOM     10  O   LIG    1      165.017 149.968 148.634  0.00  0.00    -0.270 OA
BRANCH   9  11
ATOM     11  C   LIG    1      164.851 151.028 150.751  0.00  0.00    +0.040 A 
ATOM     12  C   LIG    1      164.425 152.371 150.798  0.00  0.00    -0.038 A 
ATOM     13  C   LIG    1      164.675 153.320 149.637  0.00  0.00    +0.044 C 
ATOM     14  C   LIG    1      163.758 152.845 151.926  0.00  0.00    +0.004 A 
ATOM     15  C   LIG    1      163.513 152.005 153.009  0.00  0.00    +0.000 A 
ATOM     16  C   LIG    1      163.927 150.680 152.970  0.00  0.00    +0.001 A 
ATOM     17  C   LIG    1      164.589 150.193 151.849  0.00  0.00    +0.013 A 
ENDBRANCH   9  11
ENDBRANCH   5   7
BRANCH   1  18
ATOM     18  C   LIG    1      170.466 147.929 146.801  0.00  0.00    +0.346 C 
ATOM     19  O   LIG    1      171.462 147.516 147.386  0.00  0.00    -0.244 OA
BRANCH  18  20
ATOM     20  O   LIG    1      170.196 147.378 145.591  0.00  0.00    -0.461 OA
BRANCH  20  22
ATOM     21  C   LIG    1      169.973 145.571 144.102  0.00  0.00    +0.048 C 
ATOM     22  C   LIG    1      169.521 146.109 145.458  0.00  0.00    +0.229 C 
ENDBRANCH  20  22
ENDBRANCH  18  20
ENDBRANCH   1  18
BRANCH   4  23
ATOM     23  C   LIG    1      167.993 152.348 147.457  0.00  0.00    +0.342 C 
ATOM     24  O   LIG    1      168.703 153.324 147.671  0.00  0.00    -0.245 OA
BRANCH  23  25
ATOM     25  O   LIG    1      166.730 152.620 147.002  0.00  0.00    -0.461 OA
BRANCH  25  26
ATOM     26  C   LIG    1      166.094 151.914 145.901  0.00  0.00    +0.229 C 
ATOM     27  C   LIG    1      164.625 152.334 145.949  0.00  0.00    +0.048 C 
ENDBRANCH  25  26
ENDBRANCH  23  25
ENDBRANCH   4  23
TORSDOF 8
