REMARK VINA RESULT:      -7.9      0.000      0.000
REMARK  Name = ZINC000049483826
REMARK                            x       y       z     vdW  Elec       q    Type
REMARK                         _______ _______ _______ _____ _____    ______ ____
ROOT
ATOM      1  N   LIG    1      170.484 147.514 145.725  0.00  0.00    -0.175 NA
ATOM      2  C   LIG    1      169.757 148.613 145.080  0.00  0.00    +0.123 C 
ATOM      3  C   LIG    1      170.940 149.519 145.506  0.00  0.00    +0.109 C 
ATOM      4  C   LIG    1      171.330 148.411 146.518  0.00  0.00    +0.123 C 
ENDROOT
BRANCH   3   5
ATOM      5  C   LIG    1      170.487 150.791 146.180  0.00  0.00    +0.233 A 
ATOM      6  O   LIG    1      171.193 151.890 146.024  0.00  0.00    -0.337 OA
ATOM      7  N   LIG    1      170.604 152.853 146.699  0.00  0.00    -0.056 NA
ATOM      8  C   LIG    1      169.565 152.309 147.236  0.00  0.00    +0.209 A 
ATOM      9  N   LIG    1      169.472 150.992 146.917  0.00  0.00    -0.191 NA
BRANCH   8  10
ATOM     10  C   LIG    1      168.613 153.019 148.080  0.00  0.00    +0.060 A 
ATOM     11  S   LIG    1      168.977 153.428 149.730  0.00  0.00    -0.093 S 
ATOM     12  C   LIG    1      167.435 154.177 149.933  0.00  0.00    +0.046 A 
ATOM     13  C   LIG    1      166.687 154.113 148.792  0.00  0.00    +0.008 A 
ATOM     14  C   LIG    1      167.352 153.458 147.745  0.00  0.00    +0.019 A 
ENDBRANCH   8  10
ENDBRANCH   3   5
BRANCH   1  15
ATOM     15  S   LIG    1      171.082 146.241 144.876  0.00  0.00    +0.061 S 
ATOM     16  O   LIG    1      170.871 146.470 143.490  0.00  0.00    -0.153 OA
ATOM     17  O   LIG    1      172.430 146.041 145.284  0.00  0.00    -0.153 OA
BRANCH  15  20
ATOM     18  C   LIG    1      170.759 145.135 147.866  0.00  0.00    +0.046 C 
ATOM     19  C   LIG    1      170.013 144.405 146.760  0.00  0.00    -0.024 A 
ATOM     20  C   LIG    1      170.091 144.817 145.414  0.00  0.00    +0.110 A 
ATOM     21  C   LIG    1      169.373 144.104 144.448  0.00  0.00    +0.048 A 
ATOM     22  C   LIG    1      168.599 143.003 144.804  0.00  0.00    +0.043 A 
ATOM     23 CL   LIG    1      167.727 142.132 143.589  0.00  0.00    -0.083 Cl
ATOM     24  C   LIG    1      168.526 142.600 146.134  0.00  0.00    +0.020 A 
ATOM     25  C   LIG    1      169.230 143.301 147.104  0.00  0.00    +0.007 A 
ENDBRANCH  15  20
ENDBRANCH   1  15
TORSDOF 4
