REMARK VINA RESULT:      -7.4      5.975      8.710
REMARK  Name = 
REMARK                            x       y       z     vdW  Elec       q    Type
REMARK                         _______ _______ _______ _____ _____    ______ ____
ROOT
ATOM      1  O   LIG    1      169.082 145.382 143.774  0.00  0.00    -0.346 OA
ENDROOT
BRANCH   1   7
ATOM      2  C   LIG    1      165.220 143.598 147.615  0.00  0.00    +0.398 A 
ATOM      3  N   LIG    1      166.120 142.647 147.233  0.00  0.00    -0.128 NA
ATOM      4  C   LIG    1      166.871 143.093 146.234  0.00  0.00    +0.306 A 
ATOM      5  O   LIG    1      167.916 142.507 145.505  0.00  0.00    -0.445 OA
ATOM      6  C   LIG    1      168.471 143.239 144.428  0.00  0.00    +0.240 C 
ATOM      7  C   LIG    1      168.695 144.758 145.124  0.00  0.00    +0.182 C 
ATOM      8  C   LIG    1      167.072 145.151 144.906  0.00  0.00    +0.144 C 
ATOM      9  N   LIG    1      166.466 144.340 145.957  0.00  0.00    -0.272 N 
ATOM     10  C   LIG    1      165.462 144.661 146.791  0.00  0.00    +0.178 A 
BRANCH   2  12
ATOM     11  O   LIG    1      164.404 143.611 149.462  0.00  0.00    +0.043 OA
ATOM     12  N   LIG    1      164.244 143.481 148.661  0.00  0.00    +0.103 N 
ATOM     13  O   LIG    1      162.961 143.121 148.231  0.00  0.00    -0.575 OA
ENDBRANCH   2  12
ENDBRANCH   1   7
BRANCH   1  14
ATOM     14  C   LIG    1      170.420 145.727 143.980  0.00  0.00    +0.169 C 
BRANCH  14  15
ATOM     15  C   LIG    1      170.512 147.001 144.764  0.00  0.00    +0.007 A 
ATOM     16  C   LIG    1      169.540 147.979 144.652  0.00  0.00    +0.001 A 
ATOM     17  C   LIG    1      169.581 149.158 145.348  0.00  0.00    +0.037 A 
ATOM     18  C   LIG    1      170.651 149.389 146.213  0.00  0.00    +0.147 A 
ATOM     19  C   LIG    1      171.630 148.442 146.349  0.00  0.00    +0.037 A 
ATOM     20  C   LIG    1      171.556 147.261 145.628  0.00  0.00    +0.001 A 
BRANCH  18  21
ATOM     21  O   LIG    1      170.690 150.590 146.920  0.00  0.00    -0.404 OA
BRANCH  21  22
ATOM     22  C   LIG    1      171.497 151.650 146.404  0.00  0.00    +0.575 C 
ATOM     23  F   LIG    1      171.414 151.649 145.026  0.00  0.00    -0.133 F 
ATOM     24  F   LIG    1      172.829 151.448 146.750  0.00  0.00    -0.133 F 
ATOM     25  F   LIG    1      171.020 152.844 146.916  0.00  0.00    -0.133 F 
ENDBRANCH  21  22
ENDBRANCH  18  21
ENDBRANCH  14  15
ENDBRANCH   1  14
TORSDOF 6
