REMARK VINA RESULT:      -7.5     37.867     41.132
REMARK  Name = 
REMARK                            x       y       z     vdW  Elec       q    Type
REMARK                         _______ _______ _______ _____ _____    ______ ____
ROOT
ATOM      1  C   LIG    1      198.435 118.045 146.919  0.00  0.00    +0.035 A 
ATOM      2  C   LIG    1      197.255 118.164 146.222  0.00  0.00    +0.007 A 
ATOM      3  C   LIG    1      196.290 119.081 146.631  0.00  0.00    +0.051 A 
ATOM      4  C   LIG    1      196.466 119.896 147.728  0.00  0.00    +0.086 A 
ATOM      5  N   LIG    1      195.536 120.792 148.136  0.00  0.00    -0.224 NA
ATOM      6  C   LIG    1      194.404 120.873 147.427  0.00  0.00    +0.200 A 
ATOM      7  N   LIG    1      194.205 120.086 146.346  0.00  0.00    -0.207 NA
ATOM      8  C   LIG    1      197.666 119.756 148.414  0.00  0.00    +0.019 A 
ATOM      9  C   LIG    1      195.096 119.199 145.921  0.00  0.00    +0.155 A 
ATOM     10  C   LIG    1      198.626 118.852 148.019  0.00  0.00    +0.005 A 
ENDROOT
BRANCH   1  13
ATOM     11  C   LIG    1      200.616 115.722 145.269  0.00  0.00    +0.140 A 
ATOM     12  O   LIG    1      199.621 116.561 145.317  0.00  0.00    -0.456 OA
ATOM     13  C   LIG    1      199.434 117.081 146.478  0.00  0.00    +0.145 A 
ATOM     14  C   LIG    1      200.403 116.543 147.321  0.00  0.00    +0.040 A 
ATOM     15  C   LIG    1      201.148 115.685 146.551  0.00  0.00    +0.038 A 
BRANCH  11  16
ATOM     16  C   LIG    1      201.123 114.933 144.096  0.00  0.00    +0.153 C 
BRANCH  16  17
ATOM     17  N   LIG    1      200.627 115.524 142.859  0.00  0.00    -0.208 NA
BRANCH  17  18
ATOM     18  C   LIG    1      200.023 114.471 142.072  0.00  0.00    +0.114 C 
BRANCH  18  19
ATOM     19  C   LIG    1      198.682 114.053 142.604  0.00  0.00    +0.170 C 
BRANCH  19  21
ATOM     20  C   LIG    1      196.421 115.396 141.412  0.00  0.00    +0.176 C 
ATOM     21  S   LIG    1      197.453 113.975 141.323  0.00  0.00    -0.007 S 
ATOM     22  O   LIG    1      196.594 112.765 141.599  0.00  0.00    -0.173 OA
ATOM     23  O   LIG    1      198.087 113.879 139.959  0.00  0.00    -0.173 OA
ENDBRANCH  19  21
ENDBRANCH  18  19
ENDBRANCH  17  18
ENDBRANCH  16  17
ENDBRANCH  11  16
ENDBRANCH   1  13
BRANCH   9  24
ATOM     24  N   LIG    1      194.932 118.360 144.806  0.00  0.00    -0.194 NA
BRANCH  24  25
ATOM     25  C   LIG    1      194.876 118.868 143.509  0.00  0.00    +0.073 A 
ATOM     26  C   LIG    1      196.024 119.166 142.769  0.00  0.00    +0.031 A 
ATOM     27  C   LIG    1      195.904 119.658 141.504  0.00  0.00    +0.093 A 
ATOM     28 CL   LIG    1      197.324 120.062 140.521  0.00  0.00    -0.079 Cl
ATOM     29  C   LIG    1      194.675 119.880 140.912  0.00  0.00    +0.150 A 
ATOM     30  C   LIG    1      193.537 119.591 141.632  0.00  0.00    +0.039 A 
ATOM     31  C   LIG    1      193.661 119.095 142.904  0.00  0.00    +0.020 A 
BRANCH  29  32
ATOM     32  O   LIG    1      194.596 120.390 139.603  0.00  0.00    -0.470 OA
BRANCH  32  33
ATOM     33  C   LIG    1      194.056 121.697 139.443  0.00  0.00    +0.232 C 
BRANCH  33  34
ATOM     34  C   LIG    1      195.199 122.638 139.411  0.00  0.00    +0.023 A 
ATOM     35  C   LIG    1      195.485 123.487 140.459  0.00  0.00    +0.029 A 
ATOM     36  C   LIG    1      196.581 124.351 140.366  0.00  0.00    +0.140 A 
ATOM     37  F   LIG    1      196.906 125.205 141.372  0.00  0.00    -0.204 F 
ATOM     38  C   LIG    1      197.371 124.358 139.241  0.00  0.00    +0.030 A 
ATOM     39  C   LIG    1      197.093 123.520 138.204  0.00  0.00    +0.002 A 
ATOM     40  C   LIG    1      196.007 122.666 138.299  0.00  0.00    -0.001 A 
ENDBRANCH  33  34
ENDBRANCH  32  33
ENDBRANCH  29  32
ENDBRANCH  24  25
ENDBRANCH   9  24
TORSDOF 11
