REMARK VINA RESULT:      -7.3     41.309     45.605
REMARK  Name = 
REMARK                            x       y       z     vdW  Elec       q    Type
REMARK                         _______ _______ _______ _____ _____    ______ ____
ROOT
ATOM      1  C   LIG    1      181.436 140.935 166.328  0.00  0.00    +0.072 C 
ATOM      2  C   LIG    1      181.193 142.477 166.676  0.00  0.00    +0.070 C 
ATOM      3  N   LIG    1      180.840 142.270 168.167  0.00  0.00    -0.269 NA
ATOM      4  C   LIG    1      179.581 142.838 168.367  0.00  0.00    +0.073 C 
ATOM      5  C   LIG    1      178.814 142.111 167.252  0.00  0.00    +0.024 C 
ATOM      6  C   LIG    1      181.175 141.067 168.727  0.00  0.00    +0.099 C 
ATOM      7  C   LIG    1      180.356 139.971 168.076  0.00  0.00    -0.013 C 
ATOM      8  C   LIG    1      179.684 142.617 166.146  0.00  0.00    +0.055 C 
ATOM      9  C   LIG    1      179.542 141.634 164.896  0.00  0.00    +0.120 C 
ATOM     10  C   LIG    1      180.934 141.843 164.126  0.00  0.00    +0.268 C 
ATOM     11  O   LIG    1      180.505 141.126 162.988  0.00  0.00    -0.209 OA
ATOM     12  N   LIG    1      178.778 142.611 163.949  0.00  0.00    -0.304 N 
ATOM     13  C   LIG    1      178.210 142.158 162.711  0.00  0.00    +0.112 C 
ATOM     14  C   LIG    1      178.770 143.869 164.512  0.00  0.00    +0.047 A 
ATOM     15  C   LIG    1      178.311 145.031 163.942  0.00  0.00    +0.051 A 
ATOM     16  C   LIG    1      178.329 146.253 164.576  0.00  0.00    +0.137 A 
ATOM     17  C   LIG    1      178.838 146.285 165.842  0.00  0.00    +0.026 A 
ATOM     18  C   LIG    1      179.297 145.112 166.402  0.00  0.00    -0.003 A 
ATOM     19  C   LIG    1      179.279 143.890 165.770  0.00  0.00    -0.007 A 
ATOM     20  C   LIG    1      182.007 140.863 164.830  0.00  0.00    +0.213 C 
ATOM     21  C   LIG    1      180.583 139.999 166.761  0.00  0.00    -0.025 C 
ENDROOT
BRANCH  17  22
ATOM     22  C   LIG    1      178.855 147.590 166.592  0.00  0.00    +0.146 C 
ATOM     23  C   LIG    1      177.553 148.031 167.070  0.00  0.00    +0.068 A 
ATOM     24  C   LIG    1      177.239 149.098 167.842  0.00  0.00    -0.005 A 
ATOM     25  C   LIG    1      175.872 149.082 168.056  0.00  0.00    +0.015 A 
ATOM     26  C   LIG    1      175.374 147.994 167.404  0.00  0.00    +0.081 A 
ATOM     27  C   LIG    1      174.031 147.645 167.389  0.00  0.00    +0.019 A 
ATOM     28  C   LIG    1      173.144 148.431 168.065  0.00  0.00    +0.002 A 
ATOM     29  C   LIG    1      173.625 149.535 168.731  0.00  0.00    +0.000 A 
ATOM     30  C   LIG    1      174.977 149.873 168.737  0.00  0.00    +0.001 A 
ATOM     31  C   LIG    1      178.233 150.125 168.376  0.00  0.00    +0.045 C 
ATOM     32  C   LIG    1      178.078 151.436 167.631  0.00  0.00    +0.077 C 
ATOM     33  N   LIG    1      179.340 151.787 166.934  0.00  0.00    -0.270 NA
ATOM     34  C   LIG    1      179.075 152.557 165.768  0.00  0.00    +0.103 C 
ATOM     35  C   LIG    1      179.276 151.935 164.457  0.00  0.00    +0.141 C 
ATOM     36  C   LIG    1      179.017 150.493 164.295  0.00  0.00    +0.033 C 
ATOM     37  C   LIG    1      178.651 149.870 165.765  0.00  0.00    +0.020 C 
ATOM     38  O   LIG    1      180.570 152.192 163.931  0.00  0.00    -0.224 OA
ATOM     39  C   LIG    1      179.973 150.579 166.441  0.00  0.00    +0.072 C 
ATOM     40  N   LIG    1      176.391 147.387 166.826  0.00  0.00    -0.249 NA
ATOM     41  C   LIG    1      179.426 148.498 165.556  0.00  0.00    +0.022 C 
BRANCH  35  42
ATOM     42  C   LIG    1      178.335 152.647 163.463  0.00  0.00    +0.032 C 
ATOM     43  C   LIG    1      177.149 151.663 163.413  0.00  0.00    +0.003 C 
ENDBRANCH  35  42
BRANCH  22  44
ATOM     44  C   LIG    1      179.709 147.296 167.749  0.00  0.00    +0.325 C 
ATOM     45  O   LIG    1      180.927 147.471 167.599  0.00  0.00    -0.249 OA
BRANCH  44  46
ATOM     46  O   LIG    1      179.333 146.846 168.991  0.00  0.00    -0.444 OA
ATOM     47  C   LIG    1      180.054 147.263 170.133  0.00  0.00    +0.256 C 
ENDBRANCH  44  46
ENDBRANCH  22  44
ENDBRANCH  17  22
BRANCH   1  49
ATOM     48  C   LIG    1      183.705 141.265 166.340  0.00  0.00    +0.001 C 
ATOM     49  C   LIG    1      182.816 140.764 167.040  0.00  0.00    +0.009 C 
ENDBRANCH   1  49
BRANCH  10  50
ATOM     50  C   LIG    1      181.435 143.043 163.744  0.00  0.00    +0.350 C 
ATOM     51  O   LIG    1      181.380 143.256 162.491  0.00  0.00    -0.247 OA
BRANCH  50  52
ATOM     52  O   LIG    1      182.015 144.168 164.290  0.00  0.00    -0.443 OA
ATOM     53  C   LIG    1      182.074 145.462 163.788  0.00  0.00    +0.256 C 
ENDBRANCH  50  52
ENDBRANCH  10  50
BRANCH  16  54
ATOM     54  O   LIG    1      177.837 147.405 163.912  0.00  0.00    -0.472 OA
ATOM     55  C   LIG    1      176.615 147.306 163.197  0.00  0.00    +0.252 C 
ENDBRANCH  16  54
BRANCH  20  56
ATOM     56  O   LIG    1      181.378 139.541 164.489  0.00  0.00    -0.449 OA
BRANCH  56  57
ATOM     57  C   LIG    1      182.123 138.493 164.074  0.00  0.00    +0.318 C 
ATOM     58  O   LIG    1      183.065 138.053 164.773  0.00  0.00    -0.250 OA
ATOM     59  C   LIG    1      181.856 137.816 162.766  0.00  0.00    +0.121 C 
ENDBRANCH  56  57
ENDBRANCH  20  56
TORSDOF 10
