MODEL 1
REMARK VINA RESULT:      -6.7      0.000      0.000
REMARK  Name = ZINC000022625070
REMARK                            x       y       z     vdW  Elec       q    Type
REMARK                         _______ _______ _______ _____ _____    ______ ____
ROOT
ATOM      1  C   LIG    1      200.793 113.152 145.391  0.00  0.00    +0.171 A 
ATOM      2  C   LIG    1      202.112 113.607 145.371  0.00  0.00    +0.032 A 
ATOM      3  C   LIG    1      202.883 114.521 144.434  0.00  0.00    +0.046 C 
ATOM      4  C   LIG    1      203.987 115.241 145.257  0.00  0.00    +0.040 C 
ATOM      5  C   LIG    1      204.778 114.255 146.131  0.00  0.00    -0.036 A 
ATOM      6  C   LIG    1      204.116 113.175 146.739  0.00  0.00    +0.027 A 
ATOM      7  C   LIG    1      204.807 112.326 147.606  0.00  0.00    +0.057 A 
ATOM      8  C   LIG    1      206.163 112.550 147.844  0.00  0.00    +0.121 A 
ATOM      9  C   LIG    1      206.830 113.607 147.232  0.00  0.00    +0.046 A 
ATOM     10  C   LIG    1      206.134 114.461 146.380  0.00  0.00    +0.008 A 
ATOM     11  C   LIG    1      202.727 112.995 146.391  0.00  0.00    +0.171 A 
ATOM     12  O   LIG    1      201.829 112.209 146.998  0.00  0.00    -0.354 OA
ATOM     13  N   LIG    1      200.652 112.307 146.388  0.00  0.00    -0.073 NA
ENDROOT
BRANCH   1  16
ATOM     14  N   LIG    1      199.252 112.562 143.605  0.00  0.00    -0.307 N 
ATOM     15  H   LIG    1      199.743 111.660 143.631  0.00  0.00    +0.149 HD
ATOM     16  C   LIG    1      199.719 113.521 144.462  0.00  0.00    +0.266 C 
ATOM     17  O   LIG    1      199.214 114.641 144.395  0.00  0.00    -0.268 OA
BRANCH  14  18
ATOM     18  C   LIG    1      198.362 112.833 142.493  0.00  0.00    +0.070 C 
ATOM     19  C   LIG    1      197.398 111.650 142.418  0.00  0.00    +0.028 C 
BRANCH  18  20
ATOM     20  C   LIG    1      199.220 113.009 141.226  0.00  0.00    +0.023 C 
BRANCH  20  21
ATOM     21  C   LIG    1      199.235 114.426 140.612  0.00  0.00    +0.017 C 
BRANCH  21  22
ATOM     22  C   LIG    1      198.077 114.472 139.586  0.00  0.00    +0.084 C 
BRANCH  22  23
ATOM     23  N   LIG    1      196.997 115.369 140.076  0.00  0.00    -0.303 NA
BRANCH  23  25
ATOM     24  C   LIG    1      195.810 113.385 139.528  0.00  0.00    +0.020 C 
ATOM     25  C   LIG    1      195.736 114.656 140.378  0.00  0.00    +0.081 C 
ENDBRANCH  23  25
BRANCH  23  26
ATOM     26  C   LIG    1      197.432 116.277 141.155  0.00  0.00    +0.081 C 
ATOM     27  C   LIG    1      196.206 116.443 142.061  0.00  0.00    +0.020 C 
ENDBRANCH  23  26
ENDBRANCH  22  23
ENDBRANCH  21  22
ENDBRANCH  20  21
ENDBRANCH  18  20
ENDBRANCH  14  18
ENDBRANCH   1  16
BRANCH   8  28
ATOM     28  O   LIG    1      206.899 111.745 148.683  0.00  0.00    -0.495 OA
ATOM     29  C   LIG    1      207.671 110.596 148.266  0.00  0.00    +0.277 C 
ENDBRANCH   8  28
TORSDOF 9
ENDMDL
MODEL 2
REMARK VINA RESULT:      -6.5      4.308      9.113
REMARK  Name = ZINC000022625070
REMARK                            x       y       z     vdW  Elec       q    Type
REMARK                         _______ _______ _______ _____ _____    ______ ____
ROOT
ATOM      1  C   LIG    1      200.050 116.062 144.742  0.00  0.00    +0.171 A 
ATOM      2  C   LIG    1      199.641 116.734 145.895  0.00  0.00    +0.032 A 
ATOM      3  C   LIG    1      200.054 116.645 147.353  0.00  0.00    +0.046 C 
ATOM      4  C   LIG    1      199.855 118.044 148.001  0.00  0.00    +0.040 C 
ATOM      5  C   LIG    1      198.475 118.632 147.668  0.00  0.00    -0.036 A 
ATOM      6  C   LIG    1      197.914 118.420 146.397  0.00  0.00    +0.027 A 
ATOM      7  C   LIG    1      196.703 119.025 146.054  0.00  0.00    +0.057 A 
ATOM      8  C   LIG    1      196.050 119.823 146.992  0.00  0.00    +0.121 A 
ATOM      9  C   LIG    1      196.591 120.024 148.259  0.00  0.00    +0.046 A 
ATOM     10  C   LIG    1      197.806 119.433 148.592  0.00  0.00    +0.008 A 
ATOM     11  C   LIG    1      198.640 117.539 145.514  0.00  0.00    +0.171 A 
ATOM     12  O   LIG    1      198.451 117.363 144.200  0.00  0.00    -0.354 OA
ATOM     13  N   LIG    1      199.312 116.465 143.732  0.00  0.00    -0.073 NA
ENDROOT
BRANCH   1  16
ATOM     14  N   LIG    1      200.851 113.794 145.097  0.00  0.00    -0.307 N 
ATOM     15  H   LIG    1      199.937 113.660 145.547  0.00  0.00    +0.149 HD
ATOM     16  C   LIG    1      201.114 115.056 144.640  0.00  0.00    +0.266 C 
ATOM     17  O   LIG    1      202.232 115.273 144.177  0.00  0.00    -0.268 OA
BRANCH  14  18
ATOM     18  C   LIG    1      201.861 112.767 145.266  0.00  0.00    +0.070 C 
ATOM     19  C   LIG    1      201.300 111.504 144.612  0.00  0.00    +0.028 C 
BRANCH  18  20
ATOM     20  C   LIG    1      202.135 112.610 146.773  0.00  0.00    +0.023 C 
BRANCH  20  21
ATOM     21  C   LIG    1      203.489 113.160 147.274  0.00  0.00    +0.017 C 
BRANCH  21  22
ATOM     22  C   LIG    1      204.545 112.071 146.966  0.00  0.00    +0.084 C 
BRANCH  22  23
ATOM     23  N   LIG    1      205.726 112.681 146.299  0.00  0.00    -0.303 NA
BRANCH  23  25
ATOM     24  C   LIG    1      207.895 113.479 146.851  0.00  0.00    +0.020 C 
ATOM     25  C   LIG    1      207.017 112.225 146.863  0.00  0.00    +0.081 C 
ENDBRANCH  23  25
BRANCH  23  26
ATOM     26  C   LIG    1      205.670 112.609 144.826  0.00  0.00    +0.081 C 
ATOM     27  C   LIG    1      205.232 111.175 144.508  0.00  0.00    +0.020 C 
ENDBRANCH  23  26
ENDBRANCH  22  23
ENDBRANCH  21  22
ENDBRANCH  20  21
ENDBRANCH  18  20
ENDBRANCH  14  18
ENDBRANCH   1  16
BRANCH   8  28
ATOM     28  O   LIG    1      194.851 120.442 146.715  0.00  0.00    -0.495 OA
ATOM     29  C   LIG    1      193.938 120.963 147.707  0.00  0.00    +0.277 C 
ENDBRANCH   8  28
TORSDOF 9
ENDMDL
MODEL 3
REMARK VINA RESULT:      -6.4      1.739      2.694
REMARK  Name = ZINC000022625070
REMARK                            x       y       z     vdW  Elec       q    Type
REMARK                         _______ _______ _______ _____ _____    ______ ____
ROOT
ATOM      1  C   LIG    1      200.865 113.067 145.521  0.00  0.00    +0.171 A 
ATOM      2  C   LIG    1      202.189 113.509 145.544  0.00  0.00    +0.032 A 
ATOM      3  C   LIG    1      202.980 114.472 144.676  0.00  0.00    +0.046 C 
ATOM      4  C   LIG    1      204.083 115.125 145.555  0.00  0.00    +0.040 C 
ATOM      5  C   LIG    1      204.853 114.076 146.371  0.00  0.00    -0.036 A 
ATOM      6  C   LIG    1      204.173 112.966 146.901  0.00  0.00    +0.027 A 
ATOM      7  C   LIG    1      204.846 112.056 147.719  0.00  0.00    +0.057 A 
ATOM      8  C   LIG    1      206.201 112.249 147.985  0.00  0.00    +0.121 A 
ATOM      9  C   LIG    1      206.886 113.336 147.449  0.00  0.00    +0.046 A 
ATOM     10  C   LIG    1      206.208 114.251 146.647  0.00  0.00    +0.008 A 
ATOM     11  C   LIG    1      202.787 112.826 146.529  0.00  0.00    +0.171 A 
ATOM     12  O   LIG    1      201.874 112.012 147.074  0.00  0.00    -0.354 OA
ATOM     13  N   LIG    1      200.704 112.162 146.460  0.00  0.00    -0.073 NA
ENDROOT
BRANCH   1  16
ATOM     14  N   LIG    1      199.355 112.619 143.669  0.00  0.00    -0.307 N 
ATOM     15  H   LIG    1      199.847 111.718 143.632  0.00  0.00    +0.149 HD
ATOM     16  C   LIG    1      199.806 113.508 144.607  0.00  0.00    +0.266 C 
ATOM     17  O   LIG    1      199.298 114.628 144.619  0.00  0.00    -0.268 OA
BRANCH  14  18
ATOM     18  C   LIG    1      198.482 112.976 142.568  0.00  0.00    +0.070 C 
ATOM     19  C   LIG    1      197.532 111.794 142.374  0.00  0.00    +0.028 C 
BRANCH  18  20
ATOM     20  C   LIG    1      199.360 113.268 141.337  0.00  0.00    +0.023 C 
BRANCH  20  21
ATOM     21  C   LIG    1      199.680 114.756 141.073  0.00  0.00    +0.017 C 
BRANCH  21  22
ATOM     22  C   LIG    1      201.185 114.943 141.384  0.00  0.00    +0.084 C 
BRANCH  22  23
ATOM     23  N   LIG    1      201.423 116.295 141.953  0.00  0.00    -0.303 NA
BRANCH  23  25
ATOM     24  C   LIG    1      203.696 116.986 142.013  0.00  0.00    +0.020 C 
ATOM     25  C   LIG    1      202.412 117.087 141.186  0.00  0.00    +0.081 C 
ENDBRANCH  23  25
BRANCH  23  26
ATOM     26  C   LIG    1      200.182 117.035 142.251  0.00  0.00    +0.081 C 
ATOM     27  C   LIG    1      200.469 117.799 143.550  0.00  0.00    +0.020 C 
ENDBRANCH  23  26
ENDBRANCH  22  23
ENDBRANCH  21  22
ENDBRANCH  20  21
ENDBRANCH  18  20
ENDBRANCH  14  18
ENDBRANCH   1  16
BRANCH   8  28
ATOM     28  O   LIG    1      206.920 111.384 148.778  0.00  0.00    -0.495 OA
ATOM     29  C   LIG    1      207.964 110.500 148.310  0.00  0.00    +0.277 C 
ENDBRANCH   8  28
TORSDOF 9
ENDMDL
MODEL 4
REMARK VINA RESULT:      -6.4      3.724      4.899
REMARK  Name = ZINC000022625070
REMARK                            x       y       z     vdW  Elec       q    Type
REMARK                         _______ _______ _______ _____ _____    ______ ____
ROOT
ATOM      1  C   LIG    1      202.009 115.449 145.299  0.00  0.00    +0.171 A 
ATOM      2  C   LIG    1      202.561 114.393 146.025  0.00  0.00    +0.032 A 
ATOM      3  C   LIG    1      201.958 113.253 146.826  0.00  0.00    +0.046 C 
ATOM      4  C   LIG    1      202.932 112.044 146.761  0.00  0.00    +0.040 C 
ATOM      5  C   LIG    1      204.378 112.463 147.064  0.00  0.00    -0.036 A 
ATOM      6  C   LIG    1      204.855 113.705 146.610  0.00  0.00    +0.027 A 
ATOM      7  C   LIG    1      206.193 114.056 146.802  0.00  0.00    +0.057 A 
ATOM      8  C   LIG    1      207.042 113.172 147.466  0.00  0.00    +0.121 A 
ATOM      9  C   LIG    1      206.574 111.947 147.933  0.00  0.00    +0.046 A 
ATOM     10  C   LIG    1      205.243 111.593 147.726  0.00  0.00    +0.008 A 
ATOM     11  C   LIG    1      203.888 114.572 145.981  0.00  0.00    +0.171 A 
ATOM     12  O   LIG    1      204.129 115.679 145.267  0.00  0.00    -0.354 OA
ATOM     13  N   LIG    1      202.983 116.211 144.851  0.00  0.00    -0.073 NA
ENDROOT
BRANCH   1  16
ATOM     14  N   LIG    1      200.126 116.985 145.230  0.00  0.00    -0.307 N 
ATOM     15  H   LIG    1      200.813 117.667 145.577  0.00  0.00    +0.149 HD
ATOM     16  C   LIG    1      200.584 115.706 145.065  0.00  0.00    +0.266 C 
ATOM     17  O   LIG    1      199.767 114.847 144.737  0.00  0.00    -0.268 OA
BRANCH  14  18
ATOM     18  C   LIG    1      198.722 117.347 145.253  0.00  0.00    +0.070 C 
ATOM     19  C   LIG    1      198.423 117.988 143.897  0.00  0.00    +0.028 C 
BRANCH  18  20
ATOM     20  C   LIG    1      198.491 118.293 146.445  0.00  0.00    +0.023 C 
BRANCH  20  21
ATOM     21  C   LIG    1      197.089 118.234 147.092  0.00  0.00    +0.017 C 
BRANCH  21  22
ATOM     22  C   LIG    1      196.502 119.663 146.995  0.00  0.00    +0.084 C 
BRANCH  22  23
ATOM     23  N   LIG    1      195.286 119.658 146.140  0.00  0.00    -0.303 NA
BRANCH  23  25
ATOM     24  C   LIG    1      194.729 118.678 144.048  0.00  0.00    +0.020 C 
ATOM     25  C   LIG    1      195.018 118.343 145.513  0.00  0.00    +0.081 C 
ENDBRANCH  23  25
BRANCH  23  26
ATOM     26  C   LIG    1      194.103 120.249 146.796  0.00  0.00    +0.081 C 
ATOM     27  C   LIG    1      193.631 119.193 147.803  0.00  0.00    +0.020 C 
ENDBRANCH  23  26
ENDBRANCH  22  23
ENDBRANCH  21  22
ENDBRANCH  20  21
ENDBRANCH  18  20
ENDBRANCH  14  18
ENDBRANCH   1  16
BRANCH   8  28
ATOM     28  O   LIG    1      208.369 113.463 147.690  0.00  0.00    -0.495 OA
ATOM     29  C   LIG    1      209.336 112.549 148.257  0.00  0.00    +0.277 C 
ENDBRANCH   8  28
TORSDOF 9
ENDMDL
MODEL 5
REMARK VINA RESULT:      -6.4     41.078     45.807
REMARK  Name = ZINC000022625070
REMARK                            x       y       z     vdW  Elec       q    Type
REMARK                         _______ _______ _______ _____ _____    ______ ____
ROOT
ATOM      1  C   LIG    1      167.702 141.817 151.259  0.00  0.00    +0.171 A 
ATOM      2  C   LIG    1      166.982 142.682 150.435  0.00  0.00    +0.032 A 
ATOM      3  C   LIG    1      167.150 143.125 148.992  0.00  0.00    +0.046 C 
ATOM      4  C   LIG    1      165.743 143.450 148.416  0.00  0.00    +0.040 C 
ATOM      5  C   LIG    1      164.935 144.347 149.366  0.00  0.00    -0.036 A 
ATOM      6  C   LIG    1      165.042 144.168 150.756  0.00  0.00    +0.027 A 
ATOM      7  C   LIG    1      164.244 144.917 151.624  0.00  0.00    +0.057 A 
ATOM      8  C   LIG    1      163.358 145.856 151.097  0.00  0.00    +0.121 A 
ATOM      9  C   LIG    1      163.259 146.052 149.722  0.00  0.00    +0.046 A 
ATOM     10  C   LIG    1      164.044 145.292 148.859  0.00  0.00    +0.008 A 
ATOM     11  C   LIG    1      166.021 143.209 151.206  0.00  0.00    +0.171 A 
ATOM     12  O   LIG    1      166.152 142.691 152.433  0.00  0.00    -0.354 OA
ATOM     13  N   LIG    1      167.175 141.842 152.464  0.00  0.00    -0.073 NA
ENDROOT
BRANCH   1  16
ATOM     14  N   LIG    1      170.111 141.519 151.126  0.00  0.00    -0.307 N 
ATOM     15  H   LIG    1      170.138 142.477 151.498  0.00  0.00    +0.149 HD
ATOM     16  C   LIG    1      168.866 141.007 150.883  0.00  0.00    +0.266 C 
ATOM     17  O   LIG    1      168.800 139.898 150.354  0.00  0.00    -0.268 OA
BRANCH  14  18
ATOM     18  C   LIG    1      171.339 140.943 150.614  0.00  0.00    +0.070 C 
ATOM     19  C   LIG    1      172.186 140.585 151.835  0.00  0.00    +0.028 C 
BRANCH  18  20
ATOM     20  C   LIG    1      172.003 141.978 149.687  0.00  0.00    +0.023 C 
BRANCH  20  21
ATOM     21  C   LIG    1      171.800 141.755 148.172  0.00  0.00    +0.017 C 
BRANCH  21  22
ATOM     22  C   LIG    1      170.776 142.819 147.706  0.00  0.00    +0.084 C 
BRANCH  22  23
ATOM     23  N   LIG    1      171.318 143.575 146.546  0.00  0.00    -0.303 NA
BRANCH  23  25
ATOM     24  C   LIG    1      169.092 143.030 145.920  0.00  0.00    +0.020 C 
ATOM     25  C   LIG    1      170.296 143.887 145.522  0.00  0.00    +0.081 C 
ENDBRANCH  23  25
BRANCH  23  26
ATOM     26  C   LIG    1      172.136 144.740 146.936  0.00  0.00    +0.081 C 
ATOM     27  C   LIG    1      171.472 145.944 146.255  0.00  0.00    +0.020 C 
ENDBRANCH  23  26
ENDBRANCH  22  23
ENDBRANCH  21  22
ENDBRANCH  20  21
ENDBRANCH  18  20
ENDBRANCH  14  18
ENDBRANCH   1  16
BRANCH   8  28
ATOM     28  O   LIG    1      162.550 146.628 151.901  0.00  0.00    -0.495 OA
ATOM     29  C   LIG    1      161.220 147.077 151.555  0.00  0.00    +0.277 C 
ENDBRANCH   8  28
TORSDOF 9
ENDMDL
MODEL 6
REMARK VINA RESULT:      -6.2     41.297     45.055
REMARK  Name = ZINC000022625070
REMARK                            x       y       z     vdW  Elec       q    Type
REMARK                         _______ _______ _______ _____ _____    ______ ____
ROOT
ATOM      1  C   LIG    1      169.211 145.002 147.378  0.00  0.00    +0.171 A 
ATOM      2  C   LIG    1      170.077 143.968 147.735  0.00  0.00    +0.032 A 
ATOM      3  C   LIG    1      171.103 143.157 146.964  0.00  0.00    +0.046 C 
ATOM      4  C   LIG    1      172.225 142.728 147.950  0.00  0.00    +0.040 C 
ATOM      5  C   LIG    1      171.646 142.132 149.243  0.00  0.00    -0.036 A 
ATOM      6  C   LIG    1      170.469 142.668 149.792  0.00  0.00    +0.027 A 
ATOM      7  C   LIG    1      169.985 142.194 151.014  0.00  0.00    +0.057 A 
ATOM      8  C   LIG    1      170.670 141.172 151.668  0.00  0.00    +0.121 A 
ATOM      9  C   LIG    1      171.828 140.623 151.122  0.00  0.00    +0.046 A 
ATOM     10  C   LIG    1      172.316 141.110 149.912  0.00  0.00    +0.008 A 
ATOM     11  C   LIG    1      169.804 143.687 149.016  0.00  0.00    +0.171 A 
ATOM     12  O   LIG    1      168.823 144.506 149.415  0.00  0.00    -0.354 OA
ATOM     13  N   LIG    1      168.464 145.308 148.417  0.00  0.00    -0.073 NA
ENDROOT
BRANCH   1  16
ATOM     14  N   LIG    1      170.242 146.218 145.543  0.00  0.00    -0.307 N 
ATOM     15  H   LIG    1      171.074 146.200 146.146  0.00  0.00    +0.149 HD
ATOM     16  C   LIG    1      169.111 145.655 146.068  0.00  0.00    +0.266 C 
ATOM     17  O   LIG    1      168.075 145.739 145.410  0.00  0.00    -0.268 OA
BRANCH  14  18
ATOM     18  C   LIG    1      170.253 147.081 144.378  0.00  0.00    +0.070 C 
ATOM     19  C   LIG    1      171.181 146.417 143.361  0.00  0.00    +0.028 C 
BRANCH  18  20
ATOM     20  C   LIG    1      170.725 148.478 144.822  0.00  0.00    +0.023 C 
BRANCH  20  21
ATOM     21  C   LIG    1      169.628 149.560 144.927  0.00  0.00    +0.017 C 
BRANCH  21  22
ATOM     22  C   LIG    1      170.353 150.926 144.869  0.00  0.00    +0.084 C 
BRANCH  22  23
ATOM     23  N   LIG    1      169.941 151.771 146.021  0.00  0.00    -0.303 NA
BRANCH  23  25
ATOM     24  C   LIG    1      167.870 152.116 147.135  0.00  0.00    +0.020 C 
ATOM     25  C   LIG    1      168.991 151.094 146.933  0.00  0.00    +0.081 C 
ENDBRANCH  23  25
BRANCH  23  26
ATOM     26  C   LIG    1      171.075 152.407 146.719  0.00  0.00    +0.081 C 
ATOM     27  C   LIG    1      172.138 151.308 146.844  0.00  0.00    +0.020 C 
ENDBRANCH  23  26
ENDBRANCH  22  23
ENDBRANCH  21  22
ENDBRANCH  20  21
ENDBRANCH  18  20
ENDBRANCH  14  18
ENDBRANCH   1  16
BRANCH   8  28
ATOM     28  O   LIG    1      170.240 140.659 152.871  0.00  0.00    -0.495 OA
ATOM     29  C   LIG    1      170.420 141.295 154.157  0.00  0.00    +0.277 C 
ENDBRANCH   8  28
TORSDOF 9
ENDMDL
MODEL 7
REMARK VINA RESULT:      -6.2      2.173      3.618
REMARK  Name = ZINC000022625070
REMARK                            x       y       z     vdW  Elec       q    Type
REMARK                         _______ _______ _______ _____ _____    ______ ____
ROOT
ATOM      1  C   LIG    1      200.940 112.947 144.852  0.00  0.00    +0.171 A 
ATOM      2  C   LIG    1      202.284 113.321 144.886  0.00  0.00    +0.032 A 
ATOM      3  C   LIG    1      203.198 114.011 143.888  0.00  0.00    +0.046 C 
ATOM      4  C   LIG    1      204.271 114.807 144.681  0.00  0.00    +0.040 C 
ATOM      5  C   LIG    1      204.910 113.953 145.786  0.00  0.00    -0.036 A 
ATOM      6  C   LIG    1      204.122 113.035 146.502  0.00  0.00    +0.027 A 
ATOM      7  C   LIG    1      204.672 112.320 147.568  0.00  0.00    +0.057 A 
ATOM      8  C   LIG    1      206.013 112.511 147.899  0.00  0.00    +0.121 A 
ATOM      9  C   LIG    1      206.804 113.406 147.184  0.00  0.00    +0.046 A 
ATOM     10  C   LIG    1      206.249 114.129 146.132  0.00  0.00    +0.008 A 
ATOM     11  C   LIG    1      202.761 112.870 146.053  0.00  0.00    +0.171 A 
ATOM     12  O   LIG    1      201.760 112.253 146.693  0.00  0.00    -0.354 OA
ATOM     13  N   LIG    1      200.651 112.302 145.961  0.00  0.00    -0.073 NA
ENDROOT
BRANCH   1  16
ATOM     14  N   LIG    1      199.881 114.477 143.287  0.00  0.00    -0.307 N 
ATOM     15  H   LIG    1      200.444 115.186 143.772  0.00  0.00    +0.149 HD
ATOM     16  C   LIG    1      199.982 113.200 143.769  0.00  0.00    +0.266 C 
ATOM     17  O   LIG    1      199.255 112.343 143.270  0.00  0.00    -0.268 OA
BRANCH  14  18
ATOM     18  C   LIG    1      198.836 114.922 142.386  0.00  0.00    +0.070 C 
ATOM     19  C   LIG    1      199.445 114.907 140.983  0.00  0.00    +0.028 C 
BRANCH  18  20
ATOM     20  C   LIG    1      198.375 116.318 142.841  0.00  0.00    +0.023 C 
BRANCH  20  21
ATOM     21  C   LIG    1      198.529 116.621 144.348  0.00  0.00    +0.017 C 
BRANCH  21  22
ATOM     22  C   LIG    1      199.603 117.730 144.465  0.00  0.00    +0.084 C 
BRANCH  22  23
ATOM     23  N   LIG    1      200.932 117.125 144.743  0.00  0.00    -0.303 NA
BRANCH  23  25
ATOM     24  C   LIG    1      201.378 118.712 143.031  0.00  0.00    +0.020 C 
ATOM     25  C   LIG    1      201.961 117.488 143.742  0.00  0.00    +0.081 C 
ENDBRANCH  23  25
BRANCH  23  26
ATOM     26  C   LIG    1      201.380 117.304 146.137  0.00  0.00    +0.081 C 
ATOM     27  C   LIG    1      200.913 116.044 146.876  0.00  0.00    +0.020 C 
ENDBRANCH  23  26
ENDBRANCH  22  23
ENDBRANCH  21  22
ENDBRANCH  20  21
ENDBRANCH  18  20
ENDBRANCH  14  18
ENDBRANCH   1  16
BRANCH   8  28
ATOM     28  O   LIG    1      206.613 111.832 148.935  0.00  0.00    -0.495 OA
ATOM     29  C   LIG    1      207.983 112.011 149.362  0.00  0.00    +0.277 C 
ENDBRANCH   8  28
TORSDOF 9
ENDMDL
MODEL 8
REMARK VINA RESULT:      -6.1      2.873      8.196
REMARK  Name = ZINC000022625070
REMARK                            x       y       z     vdW  Elec       q    Type
REMARK                         _______ _______ _______ _____ _____    ______ ____
ROOT
ATOM      1  C   LIG    1      200.360 114.631 145.912  0.00  0.00    +0.171 A 
ATOM      2  C   LIG    1      199.801 114.914 144.665  0.00  0.00    +0.032 A 
ATOM      3  C   LIG    1      199.873 114.227 143.313  0.00  0.00    +0.046 C 
ATOM      4  C   LIG    1      198.546 114.508 142.554  0.00  0.00    +0.040 C 
ATOM      5  C   LIG    1      198.172 115.997 142.597  0.00  0.00    -0.036 A 
ATOM      6  C   LIG    1      198.427 116.748 143.757  0.00  0.00    +0.027 A 
ATOM      7  C   LIG    1      198.010 118.078 143.839  0.00  0.00    +0.057 A 
ATOM      8  C   LIG    1      197.358 118.657 142.752  0.00  0.00    +0.121 A 
ATOM      9  C   LIG    1      197.116 117.925 141.592  0.00  0.00    +0.046 A 
ATOM     10  C   LIG    1      197.520 116.594 141.520  0.00  0.00    +0.008 A 
ATOM     11  C   LIG    1      199.152 116.077 144.809  0.00  0.00    +0.171 A 
ATOM     12  O   LIG    1      199.310 116.479 146.076  0.00  0.00    -0.354 OA
ATOM     13  N   LIG    1      200.045 115.597 146.747  0.00  0.00    -0.073 NA
ENDROOT
BRANCH   1  16
ATOM     14  N   LIG    1      202.542 113.601 146.218  0.00  0.00    -0.307 N 
ATOM     15  H   LIG    1      202.892 114.501 145.866  0.00  0.00    +0.149 HD
ATOM     16  C   LIG    1      201.181 113.467 146.266  0.00  0.00    +0.266 C 
ATOM     17  O   LIG    1      200.728 112.373 146.597  0.00  0.00    -0.268 OA
BRANCH  14  18
ATOM     18  C   LIG    1      203.470 112.492 146.322  0.00  0.00    +0.070 C 
ATOM     19  C   LIG    1      204.617 112.975 147.208  0.00  0.00    +0.028 C 
BRANCH  18  20
ATOM     20  C   LIG    1      203.913 112.105 144.899  0.00  0.00    +0.023 C 
BRANCH  20  21
ATOM     21  C   LIG    1      205.218 112.762 144.396  0.00  0.00    +0.017 C 
BRANCH  21  22
ATOM     22  C   LIG    1      204.797 113.846 143.374  0.00  0.00    +0.084 C 
BRANCH  22  23
ATOM     23  N   LIG    1      204.420 115.097 144.084  0.00  0.00    -0.303 NA
BRANCH  23  25
ATOM     24  C   LIG    1      206.192 116.305 143.060  0.00  0.00    +0.020 C 
ATOM     25  C   LIG    1      205.582 115.952 144.418  0.00  0.00    +0.081 C 
ENDBRANCH  23  25
BRANCH  23  26
ATOM     26  C   LIG    1      203.317 115.831 143.435  0.00  0.00    +0.081 C 
ATOM     27  C   LIG    1      202.868 116.876 144.464  0.00  0.00    +0.020 C 
ENDBRANCH  23  26
ENDBRANCH  22  23
ENDBRANCH  21  22
ENDBRANCH  20  21
ENDBRANCH  18  20
ENDBRANCH  14  18
ENDBRANCH   1  16
BRANCH   8  28
ATOM     28  O   LIG    1      196.927 119.964 142.770  0.00  0.00    -0.495 OA
ATOM     29  C   LIG    1      197.330 120.984 141.827  0.00  0.00    +0.277 C 
ENDBRANCH   8  28
TORSDOF 9
ENDMDL
MODEL 9
REMARK VINA RESULT:      -6.1      6.671     11.143
REMARK  Name = ZINC000022625070
REMARK                            x       y       z     vdW  Elec       q    Type
REMARK                         _______ _______ _______ _____ _____    ______ ____
ROOT
ATOM      1  C   LIG    1      195.168 118.765 141.222  0.00  0.00    +0.171 A 
ATOM      2  C   LIG    1      195.809 119.992 141.389  0.00  0.00    +0.032 A 
ATOM      3  C   LIG    1      196.983 120.447 142.239  0.00  0.00    +0.046 C 
ATOM      4  C   LIG    1      197.695 121.615 141.501  0.00  0.00    +0.040 C 
ATOM      5  C   LIG    1      196.693 122.673 141.015  0.00  0.00    -0.036 A 
ATOM      6  C   LIG    1      195.434 122.274 140.535  0.00  0.00    +0.027 A 
ATOM      7  C   LIG    1      194.551 123.219 140.007  0.00  0.00    +0.057 A 
ATOM      8  C   LIG    1      194.925 124.562 139.981  0.00  0.00    +0.121 A 
ATOM      9  C   LIG    1      196.164 124.968 140.471  0.00  0.00    +0.046 A 
ATOM     10  C   LIG    1      197.048 124.021 140.981  0.00  0.00    +0.008 A 
ATOM     11  C   LIG    1      195.118 120.871 140.650  0.00  0.00    +0.171 A 
ATOM     12  O   LIG    1      194.110 120.211 140.067  0.00  0.00    -0.354 OA
ATOM     13  N   LIG    1      194.143 118.928 140.415  0.00  0.00    -0.073 NA
ENDROOT
BRANCH   1  16
ATOM     14  N   LIG    1      196.575 116.783 141.287  0.00  0.00    -0.307 N 
ATOM     15  H   LIG    1      196.977 117.176 140.427  0.00  0.00    +0.149 HD
ATOM     16  C   LIG    1      195.539 117.486 141.839  0.00  0.00    +0.266 C 
ATOM     17  O   LIG    1      194.976 116.997 142.817  0.00  0.00    -0.268 OA
BRANCH  14  18
ATOM     18  C   LIG    1      196.908 115.417 141.643  0.00  0.00    +0.070 C 
ATOM     19  C   LIG    1      198.206 115.489 142.447  0.00  0.00    +0.028 C 
BRANCH  18  20
ATOM     20  C   LIG    1      197.034 114.602 140.343  0.00  0.00    +0.023 C 
BRANCH  20  21
ATOM     21  C   LIG    1      195.953 113.521 140.117  0.00  0.00    +0.017 C 
BRANCH  21  22
ATOM     22  C   LIG    1      194.935 114.122 139.118  0.00  0.00    +0.084 C 
BRANCH  22  23
ATOM     23  N   LIG    1      195.168 113.570 137.758  0.00  0.00    -0.303 NA
BRANCH  23  25
ATOM     24  C   LIG    1      193.028 114.597 137.642  0.00  0.00    +0.020 C 
ATOM     25  C   LIG    1      193.994 113.698 136.865  0.00  0.00    +0.081 C 
ENDBRANCH  23  25
BRANCH  23  26
ATOM     26  C   LIG    1      196.427 114.033 137.143  0.00  0.00    +0.081 C 
ATOM     27  C   LIG    1      196.031 114.559 135.759  0.00  0.00    +0.020 C 
ENDBRANCH  23  26
ENDBRANCH  22  23
ENDBRANCH  21  22
ENDBRANCH  20  21
ENDBRANCH  18  20
ENDBRANCH  14  18
ENDBRANCH   1  16
BRANCH   8  28
ATOM     28  O   LIG    1      194.098 125.541 139.479  0.00  0.00    -0.495 OA
ATOM     29  C   LIG    1      194.545 126.754 138.831  0.00  0.00    +0.277 C 
ENDBRANCH   8  28
TORSDOF 9
ENDMDL
