REMARK VINA RESULT:      -6.9     61.590     63.604
REMARK  Name = ZINC000006087141
REMARK                            x       y       z     vdW  Elec       q    Type
REMARK                         _______ _______ _______ _____ _____    ______ ____
ROOT
ATOM      1  C   LIG    1      202.445 117.072 144.094  0.00  0.00    +0.222 C 
ENDROOT
BRANCH   1   2
ATOM      2  N   LIG    1      203.565 116.177 144.477  0.00  0.00    -0.290 N 
ATOM      3  C   LIG    1      203.430 115.302 145.540  0.00  0.00    +0.262 A 
ATOM      4  O   LIG    1      202.370 115.332 146.168  0.00  0.00    -0.267 OA
ATOM      5  C   LIG    1      204.527 114.407 145.832  0.00  0.00    +0.068 A 
ATOM      6  C   LIG    1      204.471 113.488 146.892  0.00  0.00    +0.035 A 
ATOM      7  C   LIG    1      205.550 112.646 147.138  0.00  0.00    +0.043 A 
ATOM      8 CL   LIG    1      205.474 111.511 148.441  0.00  0.00    -0.083 Cl
ATOM      9  C   LIG    1      206.692 112.708 146.337  0.00  0.00    +0.042 A 
ATOM     10  C   LIG    1      206.752 113.616 145.286  0.00  0.00    +0.068 A 
ATOM     11 CL   LIG    1      208.189 113.665 144.312  0.00  0.00    -0.081 Cl
ATOM     12  C   LIG    1      205.664 114.476 145.017  0.00  0.00    +0.096 A 
ATOM     13  N   LIG    1      205.693 115.392 143.948  0.00  0.00    -0.235 NA
ATOM     14  C   LIG    1      204.711 116.171 143.700  0.00  0.00    +0.203 A 
ENDBRANCH   1   2
BRANCH   1  17
ATOM     15  N   LIG    1      200.534 115.568 143.702  0.00  0.00    -0.281 N 
ATOM     16  H   LIG    1      200.515 115.553 144.741  0.00  0.00    +0.155 HD
ATOM     17  C   LIG    1      201.559 116.288 143.144  0.00  0.00    +0.237 C 
ATOM     18  O   LIG    1      201.789 116.247 141.953  0.00  0.00    -0.274 OA
BRANCH  15  20
ATOM     19  C   LIG    1      199.803 113.323 143.247  0.00  0.00    +0.141 A 
ATOM     20  C   LIG    1      199.594 114.700 143.086  0.00  0.00    +0.076 A 
ATOM     21  C   LIG    1      198.489 115.159 142.365  0.00  0.00    +0.030 A 
ATOM     22  C   LIG    1      197.606 114.244 141.790  0.00  0.00    -0.048 A 
ATOM     23  C   LIG    1      196.407 114.737 141.010  0.00  0.00    +0.044 C 
ATOM     24  C   LIG    1      197.822 112.874 141.952  0.00  0.00    +0.007 A 
ATOM     25  C   LIG    1      198.918 112.410 142.679  0.00  0.00    +0.048 A 
BRANCH  19  27
ATOM     26  C   LIG    1      200.857 112.329 145.308  0.00  0.00    +0.277 C 
ATOM     27  O   LIG    1      200.910 112.905 143.985  0.00  0.00    -0.493 OA
ENDBRANCH  19  27
ENDBRANCH  15  20
ENDBRANCH   1  17
TORSDOF 4
