REMARK VINA RESULT:      -7.8      4.528      6.143
REMARK  Name = ZINC000000622956
REMARK                            x       y       z     vdW  Elec       q    Type
REMARK                         _______ _______ _______ _____ _____    ______ ____
ROOT
ATOM      1  C   LIG    1      167.284 143.473 146.390  0.00  0.00    +0.271 C 
ATOM      2  N   LIG    1      167.640 143.522 147.788  0.00  0.00    -0.157 N 
ATOM      3  C   LIG    1      166.691 144.053 148.526  0.00  0.00    +0.250 C 
ATOM      4  C   LIG    1      166.741 144.212 150.038  0.00  0.00    +0.124 C 
ATOM      5  C   LIG    1      165.735 143.210 150.648  0.00  0.00    +0.012 C 
ATOM      6  C   LIG    1      164.305 143.767 150.525  0.00  0.00    +0.004 C 
ATOM      7  C   LIG    1      163.730 143.854 149.095  0.00  0.00    +0.045 C 
ATOM      8  C   LIG    1      164.426 144.984 148.311  0.00  0.00    +0.236 C 
ATOM      9  N   LIG    1      165.673 144.412 147.786  0.00  0.00    -0.258 N 
ATOM     10  C   LIG    1      165.862 144.084 146.357  0.00  0.00    +0.323 C 
ENDROOT
BRANCH   1  11
ATOM     11  C   LIG    1      168.259 144.286 145.530  0.00  0.00    +0.034 A 
ATOM     12  C   LIG    1      169.272 143.659 144.782  0.00  0.00    +0.060 A 
ATOM     13  C   LIG    1      170.117 144.446 144.015  0.00  0.00    +0.167 A 
ATOM     14  O   LIG    1      171.138 144.023 143.240  0.00  0.00    -0.453 OA
ATOM     15  C   LIG    1      171.717 145.243 142.622  0.00  0.00    +0.466 C 
ATOM     16  O   LIG    1      170.910 146.366 143.158  0.00  0.00    -0.453 OA
ATOM     17  C   LIG    1      169.984 145.809 143.966  0.00  0.00    +0.166 A 
ATOM     18  C   LIG    1      168.994 146.460 144.683  0.00  0.00    +0.050 A 
ATOM     19  C   LIG    1      168.129 145.691 145.464  0.00  0.00    +0.014 A 
ENDBRANCH   1  11
BRANCH   2  20
ATOM     20  C   LIG    1      168.838 142.972 148.304  0.00  0.00    +0.124 A 
ATOM     21  C   LIG    1      169.994 143.750 148.273  0.00  0.00    +0.050 A 
ATOM     22  C   LIG    1      171.180 143.220 148.774  0.00  0.00    +0.024 A 
ATOM     23  C   LIG    1      171.198 141.924 149.298  0.00  0.00    +0.041 A 
ATOM     24 CL   LIG    1      172.673 141.268 149.919  0.00  0.00    -0.084 Cl
ATOM     25  C   LIG    1      170.031 141.152 149.320  0.00  0.00    +0.024 A 
ATOM     26  C   LIG    1      168.842 141.677 148.819  0.00  0.00    +0.050 A 
ENDBRANCH   2  20
BRANCH   1  27
ATOM     27  O   LIG    1      167.257 142.099 146.025  0.00  0.00    -0.347 OA
ATOM     28  H   LIG    1      167.962 141.951 145.377  0.00  0.00    +0.215 HD
ENDBRANCH   1  27
TORSDOF 3
