REMARK VINA RESULT:      -7.6      1.744      2.062
REMARK  Name = 
REMARK                            x       y       z     vdW  Elec       q    Type
REMARK                         _______ _______ _______ _____ _____    ______ ____
ROOT
ATOM      1  C   LIG    1      201.746  82.825 148.111  0.00  0.00    +0.032 C 
ATOM      2  C   LIG    1      202.118  84.042 148.896  0.00  0.00    -0.006 A 
ATOM      3  C   LIG    1      201.937  84.081 150.285  0.00  0.00    +0.071 A 
ATOM      4  C   LIG    1      202.276  85.199 151.026  0.00  0.00    +0.033 A 
ATOM      5  C   LIG    1      202.800  86.289 150.379  0.00  0.00    +0.075 A 
ATOM      6  C   LIG    1      202.985  86.260 148.992  0.00  0.00    +0.016 A 
ATOM      7  C   LIG    1      202.641  85.138 148.270  0.00  0.00    -0.002 A 
ENDROOT
BRANCH   5   8
ATOM      8  N   LIG    1      203.158  87.448 151.092  0.00  0.00    -0.175 NA
ATOM      9  C   LIG    1      204.446  87.744 151.577  0.00  0.00    +0.269 C 
ATOM     10  O   LIG    1      205.377  86.942 151.383  0.00  0.00    -0.268 OA
BRANCH   9  11
ATOM     11  C   LIG    1      204.680  88.997 152.308  0.00  0.00    +0.055 A 
ATOM     12  C   LIG    1      204.006  90.153 151.983  0.00  0.00    +0.004 A 
ATOM     13  C   LIG    1      204.224  91.348 152.677  0.00  0.00    -0.003 A 
ATOM     14  C   LIG    1      205.127  91.400 153.710  0.00  0.00    -0.006 A 
ATOM     15  C   LIG    1      205.804  90.251 154.040  0.00  0.00    -0.003 A 
ATOM     16  C   LIG    1      205.585  89.056 153.346  0.00  0.00    +0.004 A 
BRANCH  14  17
ATOM     17  C   LIG    1      205.355  92.661 154.438  0.00  0.00    +0.099 C 
BRANCH  17  18
ATOM     18  N   LIG    1      204.209  93.163 155.125  0.00  0.00    -0.267 NA
ATOM     19  C   LIG    1      203.798  92.348 156.251  0.00  0.00    +0.090 C 
ATOM     20  C   LIG    1      204.863  92.325 157.329  0.00  0.00    +0.090 C 
ATOM     21  N   LIG    1      205.532  93.620 157.415  0.00  0.00    -0.269 NA
ATOM     22  C   LIG    1      205.908  93.927 158.762  0.00  0.00    +0.090 C 
ATOM     23  C   LIG    1      204.636  94.682 156.948  0.00  0.00    +0.090 C 
ATOM     24  C   LIG    1      204.452  94.535 155.472  0.00  0.00    +0.090 C 
ENDBRANCH  17  18
ENDBRANCH  14  17
ENDBRANCH   9  11
ENDBRANCH   5   8
BRANCH   3  25
ATOM     25  N   LIG    1      201.400  82.935 150.862  0.00  0.00    -0.178 NA
BRANCH  25  26
ATOM     26  C   LIG    1      201.890  82.126 151.890  0.00  0.00    +0.241 A 
ATOM     27  N   LIG    1      202.104  80.815 151.601  0.00  0.00    -0.212 NA
ATOM     28  C   LIG    1      202.564  79.910 152.454  0.00  0.00    +0.087 A 
ATOM     29  C   LIG    1      202.854  80.330 153.757  0.00  0.00    +0.040 A 
ATOM     30  C   LIG    1      202.639  81.657 154.057  0.00  0.00    +0.103 A 
ATOM     31  N   LIG    1      202.170  82.505 153.127  0.00  0.00    -0.211 NA
BRANCH  28  32
ATOM     32  C   LIG    1      202.780  78.512 152.104  0.00  0.00    +0.037 A 
ATOM     33  C   LIG    1      202.361  77.520 152.961  0.00  0.00    +0.100 A 
ATOM     34  N   LIG    1      202.556  76.204 152.646  0.00  0.00    -0.242 NA
ATOM     35  C   LIG    1      203.147  75.840 151.517  0.00  0.00    +0.099 A 
ATOM     36  C   LIG    1      203.589  76.788 150.616  0.00  0.00    +0.021 A 
ATOM     37  C   LIG    1      203.393  78.134 150.932  0.00  0.00    +0.005 A 
ENDBRANCH  28  32
ENDBRANCH  25  26
ENDBRANCH   3  25
TORSDOF 7
