REMARK VINA RESULT:      -6.1      2.873      8.196
REMARK  Name = ZINC000022625070
REMARK                            x       y       z     vdW  Elec       q    Type
REMARK                         _______ _______ _______ _____ _____    ______ ____
ROOT
ATOM      1  C   LIG    1      200.360 114.631 145.912  0.00  0.00    +0.171 A 
ATOM      2  C   LIG    1      199.801 114.914 144.665  0.00  0.00    +0.032 A 
ATOM      3  C   LIG    1      199.873 114.227 143.313  0.00  0.00    +0.046 C 
ATOM      4  C   LIG    1      198.546 114.508 142.554  0.00  0.00    +0.040 C 
ATOM      5  C   LIG    1      198.172 115.997 142.597  0.00  0.00    -0.036 A 
ATOM      6  C   LIG    1      198.427 116.748 143.757  0.00  0.00    +0.027 A 
ATOM      7  C   LIG    1      198.010 118.078 143.839  0.00  0.00    +0.057 A 
ATOM      8  C   LIG    1      197.358 118.657 142.752  0.00  0.00    +0.121 A 
ATOM      9  C   LIG    1      197.116 117.925 141.592  0.00  0.00    +0.046 A 
ATOM     10  C   LIG    1      197.520 116.594 141.520  0.00  0.00    +0.008 A 
ATOM     11  C   LIG    1      199.152 116.077 144.809  0.00  0.00    +0.171 A 
ATOM     12  O   LIG    1      199.310 116.479 146.076  0.00  0.00    -0.354 OA
ATOM     13  N   LIG    1      200.045 115.597 146.747  0.00  0.00    -0.073 NA
ENDROOT
BRANCH   1  16
ATOM     14  N   LIG    1      202.542 113.601 146.218  0.00  0.00    -0.307 N 
ATOM     15  H   LIG    1      202.892 114.501 145.866  0.00  0.00    +0.149 HD
ATOM     16  C   LIG    1      201.181 113.467 146.266  0.00  0.00    +0.266 C 
ATOM     17  O   LIG    1      200.728 112.373 146.597  0.00  0.00    -0.268 OA
BRANCH  14  18
ATOM     18  C   LIG    1      203.470 112.492 146.322  0.00  0.00    +0.070 C 
ATOM     19  C   LIG    1      204.617 112.975 147.208  0.00  0.00    +0.028 C 
BRANCH  18  20
ATOM     20  C   LIG    1      203.913 112.105 144.899  0.00  0.00    +0.023 C 
BRANCH  20  21
ATOM     21  C   LIG    1      205.218 112.762 144.396  0.00  0.00    +0.017 C 
BRANCH  21  22
ATOM     22  C   LIG    1      204.797 113.846 143.374  0.00  0.00    +0.084 C 
BRANCH  22  23
ATOM     23  N   LIG    1      204.420 115.097 144.084  0.00  0.00    -0.303 NA
BRANCH  23  25
ATOM     24  C   LIG    1      206.192 116.305 143.060  0.00  0.00    +0.020 C 
ATOM     25  C   LIG    1      205.582 115.952 144.418  0.00  0.00    +0.081 C 
ENDBRANCH  23  25
BRANCH  23  26
ATOM     26  C   LIG    1      203.317 115.831 143.435  0.00  0.00    +0.081 C 
ATOM     27  C   LIG    1      202.868 116.876 144.464  0.00  0.00    +0.020 C 
ENDBRANCH  23  26
ENDBRANCH  22  23
ENDBRANCH  21  22
ENDBRANCH  20  21
ENDBRANCH  18  20
ENDBRANCH  14  18
ENDBRANCH   1  16
BRANCH   8  28
ATOM     28  O   LIG    1      196.927 119.964 142.770  0.00  0.00    -0.495 OA
ATOM     29  C   LIG    1      197.330 120.984 141.827  0.00  0.00    +0.277 C 
ENDBRANCH   8  28
TORSDOF 9
