REMARK VINA RESULT:      -7.2     16.521     22.548
REMARK  Name = 
REMARK                            x       y       z     vdW  Elec       q    Type
REMARK                         _______ _______ _______ _____ _____    ______ ____
ROOT
ATOM      1  C   LIG    1      204.024  97.250 161.888  0.00  0.00    +0.072 C 
ATOM      2  C   LIG    1      203.540  98.282 160.766  0.00  0.00    +0.070 C 
ATOM      3  N   LIG    1      203.743  97.340 159.557  0.00  0.00    -0.269 NA
ATOM      4  C   LIG    1      204.603  97.995 158.675  0.00  0.00    +0.073 C 
ATOM      5  C   LIG    1      205.749  98.308 159.650  0.00  0.00    +0.024 C 
ATOM      6  C   LIG    1      203.877  96.004 159.822  0.00  0.00    +0.099 C 
ATOM      7  C   LIG    1      205.163  95.777 160.591  0.00  0.00    -0.013 C 
ATOM      8  C   LIG    1      204.904  99.111 160.587  0.00  0.00    +0.055 C 
ATOM      9  C   LIG    1      205.616  99.139 162.015  0.00  0.00    +0.120 C 
ATOM     10  C   LIG    1      204.386  99.375 163.016  0.00  0.00    +0.268 C 
ATOM     11  O   LIG    1      205.227  99.619 164.124  0.00  0.00    -0.209 OA
ATOM     12  N   LIG    1      206.015 100.648 162.019  0.00  0.00    -0.304 N 
ATOM     13  C   LIG    1      206.883 101.188 163.026  0.00  0.00    +0.112 C 
ATOM     14  C   LIG    1      205.413 101.274 160.949  0.00  0.00    +0.047 A 
ATOM     15  C   LIG    1      205.409 102.618 160.668  0.00  0.00    +0.051 A 
ATOM     16  C   LIG    1      204.789 103.169 159.569  0.00  0.00    +0.137 A 
ATOM     17  C   LIG    1      204.149 102.308 158.725  0.00  0.00    +0.026 A 
ATOM     18  C   LIG    1      204.159 100.960 159.018  0.00  0.00    -0.003 A 
ATOM     19  C   LIG    1      204.778 100.409 160.117  0.00  0.00    -0.007 A 
ATOM     20  C   LIG    1      203.745  97.925 163.317  0.00  0.00    +0.213 C 
ATOM     21  C   LIG    1      205.125  96.513 161.703  0.00  0.00    -0.025 C 
ENDROOT
BRANCH  17  22
ATOM     22  C   LIG    1      203.480 102.853 157.492  0.00  0.00    +0.146 C 
ATOM     23  C   LIG    1      203.268 101.875 156.435  0.00  0.00    +0.068 A 
ATOM     24  C   LIG    1      202.623 102.016 155.252  0.00  0.00    -0.005 A 
ATOM     25  C   LIG    1      202.658 100.796 154.601  0.00  0.00    +0.015 A 
ATOM     26  C   LIG    1      203.330  99.926 155.406  0.00  0.00    +0.081 A 
ATOM     27  C   LIG    1      203.567  98.596 155.086  0.00  0.00    +0.019 A 
ATOM     28  C   LIG    1      203.104  98.119 153.895  0.00  0.00    +0.002 A 
ATOM     29  C   LIG    1      202.424  98.979 153.066  0.00  0.00    +0.000 A 
ATOM     30  C   LIG    1      202.193 100.312 153.400  0.00  0.00    +0.001 A 
ATOM     31  C   LIG    1      201.975 103.302 154.747  0.00  0.00    +0.045 C 
ATOM     32  C   LIG    1      202.805 103.898 153.628  0.00  0.00    +0.077 C 
ATOM     33  N   LIG    1      203.283 105.252 154.003  0.00  0.00    -0.270 NA
ATOM     34  C   LIG    1      204.516 105.548 153.361  0.00  0.00    +0.103 C 
ATOM     35  C   LIG    1      205.735 105.596 154.174  0.00  0.00    +0.141 C 
ATOM     36  C   LIG    1      205.863 104.697 155.336  0.00  0.00    +0.033 C 
ATOM     37  C   LIG    1      204.451 103.885 155.514  0.00  0.00    +0.020 C 
ATOM     38  O   LIG    1      206.033 106.909 154.624  0.00  0.00    -0.224 OA
ATOM     39  C   LIG    1      203.588 105.283 155.420  0.00  0.00    +0.072 C 
ATOM     40  N   LIG    1      203.681 100.590 156.488  0.00  0.00    -0.249 NA
ATOM     41  C   LIG    1      204.443 103.922 157.102  0.00  0.00    +0.022 C 
BRANCH  35  42
ATOM     42  C   LIG    1      206.919 105.255 153.245  0.00  0.00    +0.032 C 
ATOM     43  C   LIG    1      206.446 103.923 152.630  0.00  0.00    +0.003 C 
ENDBRANCH  35  42
BRANCH  22  44
ATOM     44  C   LIG    1      202.173 103.298 157.994  0.00  0.00    +0.325 C 
ATOM     45  O   LIG    1      201.369 102.410 158.312  0.00  0.00    -0.249 OA
BRANCH  44  46
ATOM     46  O   LIG    1      201.719 104.584 158.160  0.00  0.00    -0.444 OA
ATOM     47  C   LIG    1      200.424 104.930 157.716  0.00  0.00    +0.256 C 
ENDBRANCH  44  46
ENDBRANCH  22  44
ENDBRANCH  17  22
BRANCH   1  49
ATOM     48  C   LIG    1      201.854  96.873 162.528  0.00  0.00    +0.001 C 
ATOM     49  C   LIG    1      202.763  96.325 161.893  0.00  0.00    +0.009 C 
ENDBRANCH   1  49
BRANCH  10  50
ATOM     50  C   LIG    1      203.480 100.378 162.906  0.00  0.00    +0.350 C 
ATOM     51  O   LIG    1      203.548 101.246 163.833  0.00  0.00    -0.247 OA
BRANCH  50  52
ATOM     52  O   LIG    1      202.455 100.791 162.082  0.00  0.00    -0.443 OA
ATOM     53  C   LIG    1      201.095 100.526 162.164  0.00  0.00    +0.256 C 
ENDBRANCH  50  52
ENDBRANCH  10  50
BRANCH  16  54
ATOM     54  O   LIG    1      204.831 104.570 159.357  0.00  0.00    -0.472 OA
ATOM     55  C   LIG    1      205.842 105.324 160.006  0.00  0.00    +0.252 C 
ENDBRANCH  16  54
BRANCH  20  56
ATOM     56  O   LIG    1      204.914  97.291 164.017  0.00  0.00    -0.449 OA
BRANCH  56  57
ATOM     57  C   LIG    1      204.770  96.672 165.210  0.00  0.00    +0.318 C 
ATOM     58  O   LIG    1      203.636  96.492 165.711  0.00  0.00    -0.250 OA
ATOM     59  C   LIG    1      205.954  96.178 165.980  0.00  0.00    +0.121 C 
ENDBRANCH  56  57
ENDBRANCH  20  56
TORSDOF 10
