REMARK VINA RESULT:      -8.4      0.000      0.000
REMARK  Name = 
REMARK                            x       y       z     vdW  Elec       q    Type
REMARK                         _______ _______ _______ _____ _____    ______ ____
ROOT
ATOM      1  C   LIG    1      168.871 143.950 147.185  0.00  0.00    +0.035 A 
ATOM      2  C   LIG    1      169.791 144.924 146.870  0.00  0.00    +0.007 A 
ATOM      3  C   LIG    1      170.324 144.993 145.586  0.00  0.00    +0.051 A 
ATOM      4  C   LIG    1      169.965 144.110 144.590  0.00  0.00    +0.086 A 
ATOM      5  N   LIG    1      170.476 144.167 143.338  0.00  0.00    -0.224 NA
ATOM      6  C   LIG    1      171.367 145.132 143.077  0.00  0.00    +0.200 A 
ATOM      7  N   LIG    1      171.736 146.011 144.034  0.00  0.00    -0.207 NA
ATOM      8  C   LIG    1      169.036 143.138 144.935  0.00  0.00    +0.019 A 
ATOM      9  C   LIG    1      171.255 145.982 145.271  0.00  0.00    +0.155 A 
ATOM     10  C   LIG    1      168.502 143.059 146.202  0.00  0.00    +0.005 A 
ENDROOT
BRANCH   1  13
ATOM     11  C   LIG    1      167.727 144.400 150.557  0.00  0.00    +0.140 A 
ATOM     12  O   LIG    1      168.303 144.788 149.454  0.00  0.00    -0.456 OA
ATOM     13  C   LIG    1      168.323 143.891 148.534  0.00  0.00    +0.145 A 
ATOM     14  C   LIG    1      167.695 142.764 149.056  0.00  0.00    +0.040 A 
ATOM     15  C   LIG    1      167.320 143.091 150.335  0.00  0.00    +0.038 A 
BRANCH  11  16
ATOM     16  C   LIG    1      167.521 145.169 151.830  0.00  0.00    +0.153 C 
BRANCH  16  17
ATOM     17  N   LIG    1      167.269 146.571 151.518  0.00  0.00    -0.208 NA
BRANCH  17  18
ATOM     18  C   LIG    1      165.839 146.750 151.393  0.00  0.00    +0.114 C 
BRANCH  18  19
ATOM     19  C   LIG    1      165.426 147.117 149.995  0.00  0.00    +0.170 C 
BRANCH  19  21
ATOM     20  C   LIG    1      163.970 144.672 150.482  0.00  0.00    +0.176 C 
ATOM     21  S   LIG    1      164.327 145.914 149.289  0.00  0.00    -0.007 S 
ATOM     22  O   LIG    1      165.057 145.254 148.145  0.00  0.00    -0.173 OA
ATOM     23  O   LIG    1      163.049 146.553 148.808  0.00  0.00    -0.173 OA
ENDBRANCH  19  21
ENDBRANCH  18  19
ENDBRANCH  17  18
ENDBRANCH  16  17
ENDBRANCH  11  16
ENDBRANCH   1  13
BRANCH   9  24
ATOM     24  N   LIG    1      171.610 146.873 146.297  0.00  0.00    -0.194 NA
BRANCH  24  25
ATOM     25  C   LIG    1      171.204 148.207 146.284  0.00  0.00    +0.073 A 
ATOM     26  C   LIG    1      170.120 148.654 145.523  0.00  0.00    +0.031 A 
ATOM     27  C   LIG    1      169.770 149.970 145.554  0.00  0.00    +0.093 A 
ATOM     28 CL   LIG    1      168.410 150.596 144.603  0.00  0.00    -0.079 Cl
ATOM     29  C   LIG    1      170.453 150.898 146.317  0.00  0.00    +0.150 A 
ATOM     30  C   LIG    1      171.523 150.469 147.070  0.00  0.00    +0.039 A 
ATOM     31  C   LIG    1      171.873 149.143 147.038  0.00  0.00    +0.020 A 
BRANCH  29  32
ATOM     32  O   LIG    1      170.058 152.248 146.320  0.00  0.00    -0.470 OA
BRANCH  32  33
ATOM     33  C   LIG    1      169.998 152.908 147.579  0.00  0.00    +0.232 C 
BRANCH  33  34
ATOM     34  C   LIG    1      168.680 152.588 148.174  0.00  0.00    +0.023 A 
ATOM     35  C   LIG    1      167.492 152.935 147.565  0.00  0.00    +0.029 A 
ATOM     36  C   LIG    1      166.281 152.602 148.179  0.00  0.00    +0.140 A 
ATOM     37  F   LIG    1      165.084 152.920 147.619  0.00  0.00    -0.204 F 
ATOM     38  C   LIG    1      166.267 151.935 149.381  0.00  0.00    +0.030 A 
ATOM     39  C   LIG    1      167.439 151.590 149.985  0.00  0.00    +0.002 A 
ATOM     40  C   LIG    1      168.636 151.921 149.375  0.00  0.00    -0.001 A 
ENDBRANCH  33  34
ENDBRANCH  32  33
ENDBRANCH  29  32
ENDBRANCH  24  25
ENDBRANCH   9  24
TORSDOF 11
