REMARK VINA RESULT:      -6.8     24.857     32.505
REMARK  Name = 
REMARK                            x       y       z     vdW  Elec       q    Type
REMARK                         _______ _______ _______ _____ _____    ______ ____
ROOT
ATOM      1  C   LIG    1      200.441  94.385 186.950  0.00  0.00    +0.032 C 
ATOM      2  C   LIG    1      201.233  94.516 185.690  0.00  0.00    -0.006 A 
ATOM      3  C   LIG    1      201.106  95.652 184.879  0.00  0.00    +0.071 A 
ATOM      4  C   LIG    1      201.833  95.789 183.709  0.00  0.00    +0.033 A 
ATOM      5  C   LIG    1      202.694  94.787 183.343  0.00  0.00    +0.075 A 
ATOM      6  C   LIG    1      202.829  93.648 184.146  0.00  0.00    +0.016 A 
ATOM      7  C   LIG    1      202.097  93.529 185.307  0.00  0.00    -0.002 A 
ENDROOT
BRANCH   5   8
ATOM      8  N   LIG    1      203.452  94.882 182.162  0.00  0.00    -0.175 NA
ATOM      9  C   LIG    1      204.750  95.420 182.064  0.00  0.00    +0.269 C 
ATOM     10  O   LIG    1      205.312  95.860 183.083  0.00  0.00    -0.268 OA
BRANCH   9  11
ATOM     11  C   LIG    1      205.428  95.457 180.761  0.00  0.00    +0.055 A 
ATOM     12  C   LIG    1      206.640  96.091 180.601  0.00  0.00    +0.004 A 
ATOM     13  C   LIG    1      207.289  96.128 179.362  0.00  0.00    -0.003 A 
ATOM     14  C   LIG    1      206.728  95.529 178.262  0.00  0.00    -0.006 A 
ATOM     15  C   LIG    1      205.518  94.895 178.413  0.00  0.00    -0.003 A 
ATOM     16  C   LIG    1      204.869  94.857 179.653  0.00  0.00    +0.004 A 
BRANCH  14  17
ATOM     17  C   LIG    1      207.414  95.570 176.958  0.00  0.00    +0.099 C 
BRANCH  17  18
ATOM     18  N   LIG    1      206.539  95.636 175.832  0.00  0.00    -0.267 NA
ATOM     19  C   LIG    1      206.157  96.985 175.464  0.00  0.00    +0.090 C 
ATOM     20  C   LIG    1      207.359  97.790 175.014  0.00  0.00    +0.090 C 
ATOM     21  N   LIG    1      208.299  96.944 174.286  0.00  0.00    -0.269 NA
ATOM     22  C   LIG    1      208.957  97.670 173.241  0.00  0.00    +0.090 C 
ATOM     23  C   LIG    1      207.592  95.818 173.671  0.00  0.00    +0.090 C 
ATOM     24  C   LIG    1      207.132  94.895 174.753  0.00  0.00    +0.090 C 
ENDBRANCH  17  18
ENDBRANCH  14  17
ENDBRANCH   9  11
ENDBRANCH   5   8
BRANCH   3  25
ATOM     25  N   LIG    1      200.211  96.621 185.322  0.00  0.00    -0.178 NA
BRANCH  25  26
ATOM     26  C   LIG    1      198.841  96.759 185.091  0.00  0.00    +0.241 A 
ATOM     27  N   LIG    1      198.309  98.001 185.234  0.00  0.00    -0.212 NA
ATOM     28  C   LIG    1      197.032  98.310 185.055  0.00  0.00    +0.087 A 
ATOM     29  C   LIG    1      196.156  97.282 184.689  0.00  0.00    +0.040 A 
ATOM     30  C   LIG    1      196.689  96.020 184.543  0.00  0.00    +0.103 A 
ATOM     31  N   LIG    1      197.998  95.799 184.745  0.00  0.00    -0.211 NA
BRANCH  28  32
ATOM     32  C   LIG    1      196.500  99.658 185.219  0.00  0.00    +0.037 A 
ATOM     33  C   LIG    1      195.896 100.015 186.403  0.00  0.00    +0.100 A 
ATOM     34  N   LIG    1      195.394 101.275 186.572  0.00  0.00    -0.242 NA
ATOM     35  C   LIG    1      195.470 102.188 185.614  0.00  0.00    +0.099 A 
ATOM     36  C   LIG    1      196.065 101.891 184.404  0.00  0.00    +0.021 A 
ATOM     37  C   LIG    1      196.580 100.605 184.225  0.00  0.00    +0.005 A 
ENDBRANCH  28  32
ENDBRANCH  25  26
ENDBRANCH   3  25
TORSDOF 7
