REMARK VINA RESULT:      -7.4      3.060      3.764
REMARK  Name = ZINC000186872603
REMARK                            x       y       z     vdW  Elec       q    Type
REMARK                         _______ _______ _______ _____ _____    ______ ____
ROOT
ATOM      1  N   LIG    1      170.122 145.497 147.034  0.00  0.00    -0.297 N 
ATOM      2  C   LIG    1      168.891 145.559 146.203  0.00  0.00    +0.123 C 
ATOM      3  C   LIG    1      169.257 146.198 144.839  0.00  0.00    +0.103 C 
ATOM      4  N   LIG    1      169.830 147.561 145.033  0.00  0.00    -0.299 NA
ATOM      5  C   LIG    1      171.073 147.459 145.862  0.00  0.00    +0.103 C 
ATOM      6  C   LIG    1      170.789 146.809 147.243  0.00  0.00    +0.123 C 
ENDROOT
BRANCH   1  10
ATOM      7  C   LIG    1      171.994 141.406 148.619  0.00  0.00    +0.066 C 
ATOM      8  C   LIG    1      171.082 142.591 148.823  0.00  0.00    +0.044 A 
ATOM      9  N   LIG    1      171.001 143.492 147.867  0.00  0.00    -0.220 NA
ATOM     10  C   LIG    1      170.198 144.549 148.045  0.00  0.00    +0.218 A 
ATOM     11  N   LIG    1      169.463 144.741 149.147  0.00  0.00    -0.219 NA
ATOM     12  C   LIG    1      169.526 143.854 150.126  0.00  0.00    +0.049 A 
ATOM     13  C   LIG    1      170.347 142.744 149.988  0.00  0.00    +0.046 A 
BRANCH  12  14
ATOM     14  C   LIG    1      168.698 144.059 151.391  0.00  0.00    +0.032 C 
ATOM     15  C   LIG    1      167.248 144.385 150.999  0.00  0.00    +0.014 C 
ATOM     16  C   LIG    1      169.309 145.203 152.216  0.00  0.00    +0.014 C 
ENDBRANCH  12  14
ENDBRANCH   1  10
BRANCH   4  17
ATOM     17  C   LIG    1      168.833 148.531 145.533  0.00  0.00    +0.085 C 
BRANCH  17  18
ATOM     18  C   LIG    1      169.258 149.881 144.928  0.00  0.00    +0.025 C 
BRANCH  18  19
ATOM     19  C   LIG    1      167.997 150.616 144.435  0.00  0.00    +0.097 C 
BRANCH  19  20
ATOM     20  C   LIG    1      167.332 151.284 145.620  0.00  0.00    +0.197 A 
ATOM     21  O   LIG    1      166.023 151.019 145.878  0.00  0.00    -0.440 OA
ATOM     22  C   LIG    1      165.738 151.737 146.968  0.00  0.00    +0.155 A 
ATOM     23  C   LIG    1      164.539 151.841 147.671  0.00  0.00    +0.048 A 
ATOM     24  C   LIG    1      164.518 152.670 148.788  0.00  0.00    +0.004 A 
ATOM     25  C   LIG    1      165.678 153.370 149.178  0.00  0.00    +0.002 A 
ATOM     26  C   LIG    1      166.862 153.243 148.454  0.00  0.00    +0.031 A 
ATOM     27  C   LIG    1      166.879 152.409 147.333  0.00  0.00    +0.110 A 
ATOM     28  N   LIG    1      167.882 152.093 146.448  0.00  0.00    -0.213 NA
ENDBRANCH  19  20
ENDBRANCH  18  19
ENDBRANCH  17  18
ENDBRANCH   4  17
TORSDOF 6
