MODEL 1
REMARK VINA RESULT:      -7.0      0.000      0.000
REMARK  Name = ZINC000049483930
REMARK                            x       y       z     vdW  Elec       q    Type
REMARK                         _______ _______ _______ _____ _____    ______ ____
ROOT
ATOM      1  O   LIG    1      194.301  78.730 159.056  0.00  0.00    -0.275 OA
ATOM      2  C   LIG    1      193.794  78.994 160.127  0.00  0.00    +0.226 C 
ATOM      3  N   LIG    1      194.307  80.031 160.844  0.00  0.00    -0.299 N 
ATOM      4  C   LIG    1      193.901  80.669 162.097  0.00  0.00    +0.122 C 
ATOM      5  C   LIG    1      195.095  81.647 161.861  0.00  0.00    +0.112 C 
ATOM      6  C   LIG    1      195.377  80.963 160.489  0.00  0.00    +0.122 C 
ENDROOT
BRANCH   5   7
ATOM      7  C   LIG    1      196.223  81.415 162.842  0.00  0.00    +0.234 A 
ATOM      8  O   LIG    1      196.195  80.399 163.682  0.00  0.00    -0.337 OA
ATOM      9  N   LIG    1      197.292  80.437 164.406  0.00  0.00    -0.056 NA
ATOM     10  C   LIG    1      197.944  81.466 163.983  0.00  0.00    +0.209 A 
ATOM     11  N   LIG    1      197.278  82.105 162.987  0.00  0.00    -0.191 NA
BRANCH  10  12
ATOM     12  C   LIG    1      199.238  81.886 164.506  0.00  0.00    +0.060 A 
ATOM     13  S   LIG    1      199.749  81.483 166.119  0.00  0.00    -0.093 S 
ATOM     14  C   LIG    1      201.249  82.308 165.898  0.00  0.00    +0.046 A 
ATOM     15  C   LIG    1      201.346  82.859 164.653  0.00  0.00    +0.008 A 
ATOM     16  C   LIG    1      200.210  82.622 163.866  0.00  0.00    +0.019 A 
ENDBRANCH  10  12
ENDBRANCH   5   7
BRANCH   2  17
ATOM     17  C   LIG    1      192.605  78.228 160.669  0.00  0.00    +0.174 C 
BRANCH  17  18
ATOM     18  S   LIG    1      193.283  76.626 161.242  0.00  0.00    -0.058 S 
BRANCH  18  19
ATOM     19  C   LIG    1      192.408  76.411 162.722  0.00  0.00    +0.258 A 
ATOM     20  O   LIG    1      191.369  77.256 162.975  0.00  0.00    -0.431 OA
ATOM     21  C   LIG    1      190.899  76.850 164.162  0.00  0.00    +0.156 A 
ATOM     22  C   LIG    1      189.836  77.354 164.904  0.00  0.00    +0.048 A 
ATOM     23  C   LIG    1      189.549  76.743 166.121  0.00  0.00    +0.004 A 
ATOM     24  C   LIG    1      190.323  75.653 166.566  0.00  0.00    +0.002 A 
ATOM     25  C   LIG    1      191.381  75.172 165.798  0.00  0.00    +0.031 A 
ATOM     26  C   LIG    1      191.669  75.785 164.575  0.00  0.00    +0.110 A 
ATOM     27  N   LIG    1      192.633  75.521 163.638  0.00  0.00    -0.203 NA
ENDBRANCH  18  19
ENDBRANCH  17  18
ENDBRANCH   2  17
TORSDOF 5
ENDMDL
MODEL 2
REMARK VINA RESULT:      -7.0     36.370     38.181
REMARK  Name = ZINC000049483930
REMARK                            x       y       z     vdW  Elec       q    Type
REMARK                         _______ _______ _______ _____ _____    ______ ____
ROOT
ATOM      1  O   LIG    1      178.741 109.442 147.927  0.00  0.00    -0.275 OA
ATOM      2  C   LIG    1      179.898 109.159 147.690  0.00  0.00    +0.226 C 
ATOM      3  N   LIG    1      180.836 109.444 148.634  0.00  0.00    -0.299 N 
ATOM      4  C   LIG    1      182.271 109.170 148.723  0.00  0.00    +0.122 C 
ATOM      5  C   LIG    1      182.206 109.855 150.124  0.00  0.00    +0.112 C 
ATOM      6  C   LIG    1      180.661 110.004 149.974  0.00  0.00    +0.122 C 
ENDROOT
BRANCH   5   7
ATOM      7  C   LIG    1      182.898 111.200 150.133  0.00  0.00    +0.234 A 
ATOM      8  O   LIG    1      182.765 112.039 149.123  0.00  0.00    -0.337 OA
ATOM      9  N   LIG    1      183.462 113.120 149.397  0.00  0.00    -0.056 NA
ATOM     10  C   LIG    1      183.989 112.902 150.554  0.00  0.00    +0.209 A 
ATOM     11  N   LIG    1      183.643 111.682 151.039  0.00  0.00    -0.191 NA
BRANCH  10  12
ATOM     12  C   LIG    1      184.845 113.852 151.254  0.00  0.00    +0.060 A 
ATOM     13  S   LIG    1      184.326 114.655 152.707  0.00  0.00    -0.093 S 
ATOM     14  C   LIG    1      185.823 115.506 152.825  0.00  0.00    +0.046 A 
ATOM     15  C   LIG    1      186.670 115.186 151.803  0.00  0.00    +0.008 A 
ATOM     16  C   LIG    1      186.118 114.252 150.915  0.00  0.00    +0.019 A 
ENDBRANCH  10  12
ENDBRANCH   5   7
BRANCH   2  17
ATOM     17  C   LIG    1      180.317 108.482 146.402  0.00  0.00    +0.174 C 
BRANCH  17  18
ATOM     18  S   LIG    1      179.945 109.691 145.077  0.00  0.00    -0.058 S 
BRANCH  18  19
ATOM     19  C   LIG    1      181.202 110.855 145.334  0.00  0.00    +0.258 A 
ATOM     20  O   LIG    1      182.454 110.389 145.607  0.00  0.00    -0.431 OA
ATOM     21  C   LIG    1      183.192 111.498 145.750  0.00  0.00    +0.156 A 
ATOM     22  C   LIG    1      184.548 111.620 146.034  0.00  0.00    +0.048 A 
ATOM     23  C   LIG    1      185.077 112.904 146.130  0.00  0.00    +0.004 A 
ATOM     24  C   LIG    1      184.247 114.027 145.942  0.00  0.00    +0.002 A 
ATOM     25  C   LIG    1      182.893 113.871 145.658  0.00  0.00    +0.031 A 
ATOM     26  C   LIG    1      182.361 112.580 145.561  0.00  0.00    +0.110 A 
ATOM     27  N   LIG    1      181.089 112.147 145.298  0.00  0.00    -0.203 NA
ENDBRANCH  18  19
ENDBRANCH  17  18
ENDBRANCH   2  17
TORSDOF 5
ENDMDL
MODEL 3
REMARK VINA RESULT:      -6.8     12.964     15.238
REMARK  Name = ZINC000049483930
REMARK                            x       y       z     vdW  Elec       q    Type
REMARK                         _______ _______ _______ _____ _____    ______ ____
ROOT
ATOM      1  O   LIG    1      188.098  93.794 155.329  0.00  0.00    -0.275 OA
ATOM      2  C   LIG    1      187.557  92.765 155.680  0.00  0.00    +0.226 C 
ATOM      3  N   LIG    1      188.092  92.081 156.728  0.00  0.00    -0.299 N 
ATOM      4  C   LIG    1      187.664  90.886 157.457  0.00  0.00    +0.122 C 
ATOM      5  C   LIG    1      188.921  91.116 158.354  0.00  0.00    +0.112 C 
ATOM      6  C   LIG    1      189.229  92.432 157.579  0.00  0.00    +0.122 C 
ENDROOT
BRANCH   5   7
ATOM      7  C   LIG    1      189.987  90.068 158.120  0.00  0.00    +0.234 A 
ATOM      8  O   LIG    1      190.719  89.610 159.117  0.00  0.00    -0.337 OA
ATOM      9  N   LIG    1      191.553  88.716 158.633  0.00  0.00    -0.056 NA
ATOM     10  C   LIG    1      191.300  88.662 157.370  0.00  0.00    +0.209 A 
ATOM     11  N   LIG    1      190.306  89.518 157.022  0.00  0.00    -0.191 NA
BRANCH  10  12
ATOM     12  C   LIG    1      191.993  87.785 156.434  0.00  0.00    +0.060 A 
ATOM     13  S   LIG    1      191.855  86.054 156.525  0.00  0.00    -0.093 S 
ATOM     14  C   LIG    1      192.902  85.852 155.169  0.00  0.00    +0.046 A 
ATOM     15  C   LIG    1      193.331  87.052 154.677  0.00  0.00    +0.008 A 
ATOM     16  C   LIG    1      192.818  88.145 155.391  0.00  0.00    +0.019 A 
ENDBRANCH  10  12
ENDBRANCH   5   7
BRANCH   2  17
ATOM     17  C   LIG    1      186.303  92.243 155.010  0.00  0.00    +0.174 C 
BRANCH  17  18
ATOM     18  S   LIG    1      186.737  92.070 153.239  0.00  0.00    -0.058 S 
BRANCH  18  19
ATOM     19  C   LIG    1      186.310  90.415 152.957  0.00  0.00    +0.258 A 
ATOM     20  O   LIG    1      187.273  89.585 152.465  0.00  0.00    -0.431 OA
ATOM     21  C   LIG    1      186.658  88.399 152.357  0.00  0.00    +0.156 A 
ATOM     22  C   LIG    1      187.167  87.184 151.910  0.00  0.00    +0.048 A 
ATOM     23  C   LIG    1      186.309  86.088 151.898  0.00  0.00    +0.004 A 
ATOM     24  C   LIG    1      184.975  86.229 152.326  0.00  0.00    +0.002 A 
ATOM     25  C   LIG    1      184.496  87.460 152.769  0.00  0.00    +0.031 A 
ATOM     26  C   LIG    1      185.359  88.561 152.782  0.00  0.00    +0.110 A 
ATOM     27  N   LIG    1      185.154  89.862 153.160  0.00  0.00    -0.203 NA
ENDBRANCH  18  19
ENDBRANCH  17  18
ENDBRANCH   2  17
TORSDOF 5
ENDMDL
MODEL 4
REMARK VINA RESULT:      -6.8      9.873     14.280
REMARK  Name = ZINC000049483930
REMARK                            x       y       z     vdW  Elec       q    Type
REMARK                         _______ _______ _______ _____ _____    ______ ____
ROOT
ATOM      1  O   LIG    1      190.854  87.058 155.815  0.00  0.00    -0.275 OA
ATOM      2  C   LIG    1      190.891  86.812 157.004  0.00  0.00    +0.226 C 
ATOM      3  N   LIG    1      190.608  85.544 157.408  0.00  0.00    -0.299 N 
ATOM      4  C   LIG    1      190.642  84.887 158.716  0.00  0.00    +0.122 C 
ATOM      5  C   LIG    1      190.218  83.591 157.955  0.00  0.00    +0.112 C 
ATOM      6  C   LIG    1      190.314  84.359 156.602  0.00  0.00    +0.122 C 
ENDROOT
BRANCH   5   7
ATOM      7  C   LIG    1      188.794  83.188 158.268  0.00  0.00    +0.234 A 
ATOM      8  O   LIG    1      188.319  82.019 157.882  0.00  0.00    -0.337 OA
ATOM      9  N   LIG    1      187.071  81.932 158.288  0.00  0.00    -0.056 NA
ATOM     10  C   LIG    1      186.834  83.040 158.902  0.00  0.00    +0.209 A 
ATOM     11  N   LIG    1      187.919  83.856 158.898  0.00  0.00    -0.191 NA
BRANCH  10  12
ATOM     12  C   LIG    1      185.560  83.372 159.527  0.00  0.00    +0.060 A 
ATOM     13  S   LIG    1      184.533  84.629 158.904  0.00  0.00    -0.093 S 
ATOM     14  C   LIG    1      183.364  84.353 160.143  0.00  0.00    +0.046 A 
ATOM     15  C   LIG    1      183.747  83.349 160.985  0.00  0.00    +0.008 A 
ATOM     16  C   LIG    1      184.987  82.794 160.639  0.00  0.00    +0.019 A 
ENDBRANCH  10  12
ENDBRANCH   5   7
BRANCH   2  17
ATOM     17  C   LIG    1      191.266  87.857 158.034  0.00  0.00    +0.174 C 
BRANCH  17  18
ATOM     18  S   LIG    1      190.480  89.408 157.456  0.00  0.00    -0.058 S 
BRANCH  18  19
ATOM     19  C   LIG    1      191.871  90.320 156.971  0.00  0.00    +0.258 A 
ATOM     20  O   LIG    1      192.280  91.336 157.784  0.00  0.00    -0.431 OA
ATOM     21  C   LIG    1      193.353  91.840 157.160  0.00  0.00    +0.156 A 
ATOM     22  C   LIG    1      194.175  92.895 157.543  0.00  0.00    +0.048 A 
ATOM     23  C   LIG    1      195.239  93.223 156.708  0.00  0.00    +0.004 A 
ATOM     24  C   LIG    1      195.455  92.498 155.520  0.00  0.00    +0.002 A 
ATOM     25  C   LIG    1      194.614  91.446 155.165  0.00  0.00    +0.031 A 
ATOM     26  C   LIG    1      193.545  91.116 156.005  0.00  0.00    +0.110 A 
ATOM     27  N   LIG    1      192.583  90.147 155.901  0.00  0.00    -0.203 NA
ENDBRANCH  18  19
ENDBRANCH  17  18
ENDBRANCH   2  17
TORSDOF 5
ENDMDL
MODEL 5
REMARK VINA RESULT:      -6.7     70.777     73.163
REMARK  Name = ZINC000049483930
REMARK                            x       y       z     vdW  Elec       q    Type
REMARK                         _______ _______ _______ _____ _____    ______ ____
ROOT
ATOM      1  O   LIG    1      178.341 148.094 156.168  0.00  0.00    -0.275 OA
ATOM      2  C   LIG    1      177.341 148.783 156.176  0.00  0.00    +0.226 C 
ATOM      3  N   LIG    1      176.535 148.736 157.272  0.00  0.00    -0.299 N 
ATOM      4  C   LIG    1      175.331 149.477 157.652  0.00  0.00    +0.122 C 
ATOM      5  C   LIG    1      175.380 148.660 158.982  0.00  0.00    +0.112 C 
ATOM      6  C   LIG    1      176.719 148.005 158.526  0.00  0.00    +0.122 C 
ENDROOT
BRANCH   5   7
ATOM      7  C   LIG    1      174.263 147.644 159.067  0.00  0.00    +0.234 A 
ATOM      8  O   LIG    1      173.707 147.341 160.225  0.00  0.00    -0.337 OA
ATOM      9  N   LIG    1      172.771 146.444 160.006  0.00  0.00    -0.056 NA
ATOM     10  C   LIG    1      172.789 146.236 158.733  0.00  0.00    +0.209 A 
ATOM     11  N   LIG    1      173.735 146.990 158.116  0.00  0.00    -0.191 NA
BRANCH  10  12
ATOM     12  C   LIG    1      171.899 145.310 158.043  0.00  0.00    +0.060 A 
ATOM     13  S   LIG    1      170.944 145.803 156.677  0.00  0.00    -0.093 S 
ATOM     14  C   LIG    1      170.267 144.223 156.522  0.00  0.00    +0.046 A 
ATOM     15  C   LIG    1      170.752 143.369 157.470  0.00  0.00    +0.008 A 
ATOM     16  C   LIG    1      171.675 143.982 158.330  0.00  0.00    +0.019 A 
ENDBRANCH  10  12
ENDBRANCH   5   7
BRANCH   2  17
ATOM     17  C   LIG    1      176.984 149.702 155.026  0.00  0.00    +0.174 C 
BRANCH  17  18
ATOM     18  S   LIG    1      178.052 151.175 155.236  0.00  0.00    -0.058 S 
BRANCH  18  19
ATOM     19  C   LIG    1      178.326 151.619 153.584  0.00  0.00    +0.258 A 
ATOM     20  O   LIG    1      177.799 150.818 152.614  0.00  0.00    -0.431 OA
ATOM     21  C   LIG    1      178.167 151.407 151.468  0.00  0.00    +0.156 A 
ATOM     22  C   LIG    1      177.900 151.022 150.158  0.00  0.00    +0.048 A 
ATOM     23  C   LIG    1      178.404 151.818 149.134  0.00  0.00    +0.004 A 
ATOM     24  C   LIG    1      179.156 152.970 149.438  0.00  0.00    +0.002 A 
ATOM     25  C   LIG    1      179.405 153.328 150.761  0.00  0.00    +0.031 A 
ATOM     26  C   LIG    1      178.898 152.528 151.790  0.00  0.00    +0.110 A 
ATOM     27  N   LIG    1      178.991 152.645 153.152  0.00  0.00    -0.203 NA
ENDBRANCH  18  19
ENDBRANCH  17  18
ENDBRANCH   2  17
TORSDOF 5
ENDMDL
MODEL 6
REMARK VINA RESULT:      -6.7     35.326     38.055
REMARK  Name = ZINC000049483930
REMARK                            x       y       z     vdW  Elec       q    Type
REMARK                         _______ _______ _______ _____ _____    ______ ____
ROOT
ATOM      1  O   LIG    1      184.702 114.272 148.140  0.00  0.00    -0.275 OA
ATOM      2  C   LIG    1      184.763 113.648 147.100  0.00  0.00    +0.226 C 
ATOM      3  N   LIG    1      183.598 113.340 146.465  0.00  0.00    -0.299 N 
ATOM      4  C   LIG    1      183.305 112.697 145.184  0.00  0.00    +0.122 C 
ATOM      5  C   LIG    1      181.803 112.947 145.525  0.00  0.00    +0.112 C 
ATOM      6  C   LIG    1      182.227 113.709 146.817  0.00  0.00    +0.122 C 
ENDROOT
BRANCH   5   7
ATOM      7  C   LIG    1      181.071 111.664 145.849  0.00  0.00    +0.234 A 
ATOM      8  O   LIG    1      180.512 110.941 144.897  0.00  0.00    -0.337 OA
ATOM      9  N   LIG    1      179.956 109.889 145.457  0.00  0.00    -0.056 NA
ATOM     10  C   LIG    1      180.197 110.006 146.718  0.00  0.00    +0.209 A 
ATOM     11  N   LIG    1      180.904 111.133 146.990  0.00  0.00    -0.191 NA
BRANCH  10  12
ATOM     12  C   LIG    1      179.766 109.045 147.726  0.00  0.00    +0.060 A 
ATOM     13  S   LIG    1      178.384 109.338 148.741  0.00  0.00    -0.093 S 
ATOM     14  C   LIG    1      178.599 107.828 149.548  0.00  0.00    +0.046 A 
ATOM     15  C   LIG    1      179.674 107.141 149.060  0.00  0.00    +0.008 A 
ATOM     16  C   LIG    1      180.334 107.828 148.030  0.00  0.00    +0.019 A 
ENDBRANCH  10  12
ENDBRANCH   5   7
BRANCH   2  17
ATOM     17  C   LIG    1      186.081 113.234 146.482  0.00  0.00    +0.174 C 
BRANCH  17  18
ATOM     18  S   LIG    1      186.290 111.470 146.927  0.00  0.00    -0.058 S 
BRANCH  18  19
ATOM     19  C   LIG    1      187.596 111.571 148.062  0.00  0.00    +0.258 A 
ATOM     20  O   LIG    1      188.422 110.492 148.178  0.00  0.00    -0.431 OA
ATOM     21  C   LIG    1      189.313 110.863 149.108  0.00  0.00    +0.156 A 
ATOM     22  C   LIG    1      190.393 110.151 149.621  0.00  0.00    +0.048 A 
ATOM     23  C   LIG    1      191.174 110.772 150.592  0.00  0.00    +0.004 A 
ATOM     24  C   LIG    1      190.862 112.075 151.025  0.00  0.00    +0.002 A 
ATOM     25  C   LIG    1      189.773 112.760 150.491  0.00  0.00    +0.031 A 
ATOM     26  C   LIG    1      188.989 112.137 149.515  0.00  0.00    +0.110 A 
ATOM     27  N   LIG    1      187.882 112.573 148.834  0.00  0.00    -0.203 NA
ENDBRANCH  18  19
ENDBRANCH  17  18
ENDBRANCH   2  17
TORSDOF 5
ENDMDL
MODEL 7
REMARK VINA RESULT:      -6.4      3.643      5.139
REMARK  Name = ZINC000049483930
REMARK                            x       y       z     vdW  Elec       q    Type
REMARK                         _______ _______ _______ _____ _____    ______ ____
ROOT
ATOM      1  O   LIG    1      195.754  79.133 160.013  0.00  0.00    -0.275 OA
ATOM      2  C   LIG    1      195.173  79.773 160.866  0.00  0.00    +0.226 C 
ATOM      3  N   LIG    1      195.685  80.982 161.224  0.00  0.00    -0.299 N 
ATOM      4  C   LIG    1      195.212  82.034 162.125  0.00  0.00    +0.122 C 
ATOM      5  C   LIG    1      196.480  82.830 161.687  0.00  0.00    +0.112 C 
ATOM      6  C   LIG    1      196.839  81.698 160.678  0.00  0.00    +0.122 C 
ENDROOT
BRANCH   5   7
ATOM      7  C   LIG    1      197.502  82.931 162.798  0.00  0.00    +0.234 A 
ATOM      8  O   LIG    1      198.335  83.951 162.865  0.00  0.00    -0.337 OA
ATOM      9  N   LIG    1      199.100  83.785 163.922  0.00  0.00    -0.056 NA
ATOM     10  C   LIG    1      198.707  82.680 164.457  0.00  0.00    +0.209 A 
ATOM     11  N   LIG    1      197.691  82.117 163.754  0.00  0.00    -0.191 NA
BRANCH  10  12
ATOM     12  C   LIG    1      199.282  82.108 165.669  0.00  0.00    +0.060 A 
ATOM     13  S   LIG    1      199.984  80.518 165.689  0.00  0.00    -0.093 S 
ATOM     14  C   LIG    1      200.368  80.658 167.365  0.00  0.00    +0.046 A 
ATOM     15  C   LIG    1      199.977  81.863 167.875  0.00  0.00    +0.008 A 
ATOM     16  C   LIG    1      199.363  82.683 166.918  0.00  0.00    +0.019 A 
ENDBRANCH  10  12
ENDBRANCH   5   7
BRANCH   2  17
ATOM     17  C   LIG    1      193.896  79.282 161.514  0.00  0.00    +0.174 C 
BRANCH  17  18
ATOM     18  S   LIG    1      192.794  78.822 160.124  0.00  0.00    -0.058 S 
BRANCH  18  19
ATOM     19  C   LIG    1      191.997  80.331 159.825  0.00  0.00    +0.258 A 
ATOM     20  O   LIG    1      192.077  81.294 160.787  0.00  0.00    -0.431 OA
ATOM     21  C   LIG    1      191.382  82.321 160.280  0.00  0.00    +0.156 A 
ATOM     22  C   LIG    1      191.136  83.573 160.834  0.00  0.00    +0.048 A 
ATOM     23  C   LIG    1      190.376  84.471 160.090  0.00  0.00    +0.004 A 
ATOM     24  C   LIG    1      189.883  84.103 158.823  0.00  0.00    +0.002 A 
ATOM     25  C   LIG    1      190.148  82.841 158.297  0.00  0.00    +0.031 A 
ATOM     26  C   LIG    1      190.913  81.938 159.043  0.00  0.00    +0.110 A 
ATOM     27  N   LIG    1      191.315  80.657 158.771  0.00  0.00    -0.203 NA
ENDBRANCH  18  19
ENDBRANCH  17  18
ENDBRANCH   2  17
TORSDOF 5
ENDMDL
MODEL 8
REMARK VINA RESULT:      -6.3     16.953     19.396
REMARK  Name = ZINC000049483930
REMARK                            x       y       z     vdW  Elec       q    Type
REMARK                         _______ _______ _______ _____ _____    ______ ____
ROOT
ATOM      1  O   LIG    1      181.386  85.764 154.655  0.00  0.00    -0.275 OA
ATOM      2  C   LIG    1      181.224  86.845 155.185  0.00  0.00    +0.226 C 
ATOM      3  N   LIG    1      180.060  87.511 154.948  0.00  0.00    -0.299 N 
ATOM      4  C   LIG    1      179.504  88.757 155.475  0.00  0.00    +0.122 C 
ATOM      5  C   LIG    1      178.256  88.448 154.590  0.00  0.00    +0.112 C 
ATOM      6  C   LIG    1      178.894  87.089 154.172  0.00  0.00    +0.122 C 
ENDROOT
BRANCH   5   7
ATOM      7  C   LIG    1      178.142  89.395 153.415  0.00  0.00    +0.234 A 
ATOM      8  O   LIG    1      176.966  89.696 152.898  0.00  0.00    -0.337 OA
ATOM      9  N   LIG    1      177.161  90.534 151.903  0.00  0.00    -0.056 NA
ATOM     10  C   LIG    1      178.437  90.712 151.853  0.00  0.00    +0.209 A 
ATOM     11  N   LIG    1      179.081  89.993 152.807  0.00  0.00    -0.191 NA
BRANCH  10  12
ATOM     12  C   LIG    1      179.104  91.583 150.892  0.00  0.00    +0.060 A 
ATOM     13  S   LIG    1      179.235  93.298 151.147  0.00  0.00    -0.093 S 
ATOM     14  C   LIG    1      180.085  93.501 149.659  0.00  0.00    +0.046 A 
ATOM     15  C   LIG    1      180.256  92.314 149.008  0.00  0.00    +0.008 A 
ATOM     16  C   LIG    1      179.702  91.229 149.704  0.00  0.00    +0.019 A 
ENDBRANCH  10  12
ENDBRANCH   5   7
BRANCH   2  17
ATOM     17  C   LIG    1      182.255  87.452 156.113  0.00  0.00    +0.174 C 
BRANCH  17  18
ATOM     18  S   LIG    1      183.851  86.702 155.618  0.00  0.00    -0.058 S 
BRANCH  18  19
ATOM     19  C   LIG    1      184.141  85.638 156.954  0.00  0.00    +0.258 A 
ATOM     20  O   LIG    1      185.359  85.029 157.028  0.00  0.00    -0.431 OA
ATOM     21  C   LIG    1      185.286  84.288 158.143  0.00  0.00    +0.156 A 
ATOM     22  C   LIG    1      186.248  83.459 158.710  0.00  0.00    +0.048 A 
ATOM     23  C   LIG    1      185.917  82.794 159.887  0.00  0.00    +0.004 A 
ATOM     24  C   LIG    1      184.645  82.969 160.465  0.00  0.00    +0.002 A 
ATOM     25  C   LIG    1      183.704  83.808 159.872  0.00  0.00    +0.031 A 
ATOM     26  C   LIG    1      184.037  84.477 158.690  0.00  0.00    +0.110 A 
ATOM     27  N   LIG    1      183.317  85.344 157.911  0.00  0.00    -0.203 NA
ENDBRANCH  18  19
ENDBRANCH  17  18
ENDBRANCH   2  17
TORSDOF 5
ENDMDL
MODEL 9
REMARK VINA RESULT:      -6.3     11.855     14.822
REMARK  Name = ZINC000049483930
REMARK                            x       y       z     vdW  Elec       q    Type
REMARK                         _______ _______ _______ _____ _____    ______ ____
ROOT
ATOM      1  O   LIG    1      189.841  91.791 156.674  0.00  0.00    -0.275 OA
ATOM      2  C   LIG    1      188.867  91.196 157.089  0.00  0.00    +0.226 C 
ATOM      3  N   LIG    1      189.049  90.268 158.068  0.00  0.00    -0.299 N 
ATOM      4  C   LIG    1      188.118  89.449 158.846  0.00  0.00    +0.122 C 
ATOM      5  C   LIG    1      189.381  88.911 159.589  0.00  0.00    +0.112 C 
ATOM      6  C   LIG    1      190.274  89.900 158.779  0.00  0.00    +0.122 C 
ENDROOT
BRANCH   5   7
ATOM      7  C   LIG    1      189.681  87.472 159.234  0.00  0.00    +0.234 A 
ATOM      8  O   LIG    1      190.910  86.998 159.298  0.00  0.00    -0.337 OA
ATOM      9  N   LIG    1      190.879  85.732 158.944  0.00  0.00    -0.056 NA
ATOM     10  C   LIG    1      189.641  85.482 158.680  0.00  0.00    +0.209 A 
ATOM     11  N   LIG    1      188.861  86.579 158.856  0.00  0.00    -0.191 NA
BRANCH  10  12
ATOM     12  C   LIG    1      189.143  84.181 158.251  0.00  0.00    +0.060 A 
ATOM     13  S   LIG    1      187.475  83.730 158.442  0.00  0.00    -0.093 S 
ATOM     14  C   LIG    1      187.764  82.183 157.734  0.00  0.00    +0.046 A 
ATOM     15  C   LIG    1      189.071  82.028 157.372  0.00  0.00    +0.008 A 
ATOM     16  C   LIG    1      189.852  83.156 157.664  0.00  0.00    +0.019 A 
ENDBRANCH  10  12
ENDBRANCH   5   7
BRANCH   2  17
ATOM     17  C   LIG    1      187.471  91.472 156.573  0.00  0.00    +0.174 C 
BRANCH  17  18
ATOM     18  S   LIG    1      187.708  92.369 154.993  0.00  0.00    -0.058 S 
BRANCH  18  19
ATOM     19  C   LIG    1      187.499  91.083 153.851  0.00  0.00    +0.258 A 
ATOM     20  O   LIG    1      186.283  90.470 153.800  0.00  0.00    -0.431 OA
ATOM     21  C   LIG    1      186.425  89.543 152.843  0.00  0.00    +0.156 A 
ATOM     22  C   LIG    1      185.494  88.625 152.366  0.00  0.00    +0.048 A 
ATOM     23  C   LIG    1      185.899  87.761 151.353  0.00  0.00    +0.004 A 
ATOM     24  C   LIG    1      187.211  87.831 150.845  0.00  0.00    +0.002 A 
ATOM     25  C   LIG    1      188.118  88.762 151.344  0.00  0.00    +0.031 A 
ATOM     26  C   LIG    1      187.711  89.632 152.362  0.00  0.00    +0.110 A 
ATOM     27  N   LIG    1      188.386  90.624 153.023  0.00  0.00    -0.203 NA
ENDBRANCH  18  19
ENDBRANCH  17  18
ENDBRANCH   2  17
TORSDOF 5
ENDMDL
