REMARK VINA RESULT:      -7.6      2.728      3.938
REMARK  Name = ZINC000006083766
REMARK                            x       y       z     vdW  Elec       q    Type
REMARK                         _______ _______ _______ _____ _____    ______ ____
ROOT
ATOM      1  O   LIG    1      169.755 148.050 147.223  0.00  0.00    -0.468 OA
ENDROOT
BRANCH   1   2
ATOM      2  C   LIG    1      169.287 149.195 146.665  0.00  0.00    +0.227 A 
ATOM      3  C   LIG    1      168.300 149.944 147.329  0.00  0.00    +0.073 A 
ATOM      4  C   LIG    1      167.623 149.749 148.567  0.00  0.00    -0.023 A 
ATOM      5  C   LIG    1      167.856 148.574 149.506  0.00  0.00    +0.037 C 
ATOM      6  C   LIG    1      167.205 148.899 150.864  0.00  0.00    +0.005 C 
ATOM      7  C   LIG    1      165.780 149.453 150.697  0.00  0.00    +0.005 C 
ATOM      8  C   LIG    1      165.802 150.836 150.024  0.00  0.00    +0.043 C 
ATOM      9  C   LIG    1      166.700 150.726 148.810  0.00  0.00    -0.004 A 
ATOM     10  S   LIG    1      166.647 151.923 147.555  0.00  0.00    -0.073 S 
ATOM     11  C   LIG    1      167.877 151.088 146.673  0.00  0.00    +0.116 A 
ATOM     12  N   LIG    1      168.382 151.474 145.476  0.00  0.00    -0.228 NA
ATOM     13  C   LIG    1      169.303 150.711 144.938  0.00  0.00    +0.226 A 
ATOM     14  N   LIG    1      169.776 149.567 145.502  0.00  0.00    -0.201 NA
ENDBRANCH   1   2
BRANCH   1  15
ATOM     15  C   LIG    1      171.148 147.881 147.619  0.00  0.00    +0.310 C 
BRANCH  15  17
ATOM     16  O   LIG    1      172.886 146.798 146.423  0.00  0.00    -0.288 OA
ATOM     17  C   LIG    1      171.745 146.716 146.835  0.00  0.00    +0.200 C 
BRANCH  17  18
ATOM     18  C   LIG    1      170.969 145.493 146.625  0.00  0.00    +0.025 A 
ATOM     19  C   LIG    1      170.185 145.305 145.469  0.00  0.00    +0.061 A 
ATOM     20  C   LIG    1      169.465 144.132 145.306  0.00  0.00    +0.163 A 
ATOM     21  O   LIG    1      168.723 143.949 144.158  0.00  0.00    -0.485 OA
ATOM     22  C   LIG    1      168.277 142.595 143.838  0.00  0.00    +0.270 C 
ATOM     23  C   LIG    1      167.677 142.005 145.125  0.00  0.00    +0.270 C 
ATOM     24  O   LIG    1      168.739 141.996 146.125  0.00  0.00    -0.485 OA
ATOM     25  C   LIG    1      169.489 143.136 146.287  0.00  0.00    +0.162 A 
ATOM     26  C   LIG    1      170.261 143.298 147.430  0.00  0.00    +0.050 A 
ATOM     27  C   LIG    1      170.994 144.470 147.596  0.00  0.00    +0.015 A 
ENDBRANCH  17  18
ENDBRANCH  15  17
ENDBRANCH   1  15
TORSDOF 4
