REMARK VINA RESULT:      -6.2     37.555     38.773
REMARK  Name = ZINC000000623204
REMARK                            x       y       z     vdW  Elec       q    Type
REMARK                         _______ _______ _______ _____ _____    ______ ____
ROOT
ATOM      1  C   LIG    1      156.428 139.683 179.049  0.00  0.00    +0.124 A 
ATOM      2  C   LIG    1      157.382 140.260 178.195  0.00  0.00    +0.067 A 
ATOM      3 CL   LIG    1      157.046 140.618 176.530  0.00  0.00    -0.082 Cl
ATOM      4  C   LIG    1      158.666 140.548 178.667  0.00  0.00    +0.023 A 
ATOM      5  C   LIG    1      159.014 140.259 179.979  0.00  0.00    +0.014 A 
ATOM      6  C   LIG    1      158.080 139.679 180.851  0.00  0.00    +0.039 A 
ATOM      7  C   LIG    1      156.796 139.397 180.365  0.00  0.00    +0.043 A 
ENDROOT
BRANCH   6   8
ATOM      8  C   LIG    1      158.419 139.359 182.238  0.00  0.00    +0.245 C 
ATOM      9  N   LIG    1      158.687 138.066 182.581  0.00  0.00    -0.305 N 
ATOM     10  H   LIG    1      158.651 137.330 181.870  0.00  0.00    +0.150 HD
ATOM     11  O   LIG    1      158.489 140.204 183.122  0.00  0.00    -0.270 OA
BRANCH   9  12
ATOM     12  C   LIG    1      158.962 137.643 183.939  0.00  0.00    +0.100 C 
ATOM     13  C   LIG    1      160.479 137.449 184.068  0.00  0.00    +0.033 C 
BRANCH  12  14
ATOM     14  C   LIG    1      158.262 136.302 184.115  0.00  0.00    -0.027 A 
ATOM     15  C   LIG    1      157.045 136.012 183.487  0.00  0.00    +0.005 A 
ATOM     16  C   LIG    1      156.428 134.779 183.679  0.00  0.00    +0.000 A 
ATOM     17  C   LIG    1      157.017 133.825 184.499  0.00  0.00    +0.000 A 
ATOM     18  C   LIG    1      158.226 134.104 185.129  0.00  0.00    +0.000 A 
ATOM     19  C   LIG    1      158.844 135.336 184.937  0.00  0.00    +0.005 A 
ENDBRANCH  12  14
ENDBRANCH   9  12
ENDBRANCH   6   8
BRANCH   1  20
ATOM     20  S   LIG    1      154.759 139.321 178.482  0.00  0.00    +0.062 S 
ATOM     21  O   LIG    1      154.184 140.523 177.984  0.00  0.00    -0.153 OA
ATOM     22  O   LIG    1      154.809 138.235 177.566  0.00  0.00    -0.153 OA
BRANCH  20  23
ATOM     23  N   LIG    1      153.926 138.852 179.843  0.00  0.00    -0.177 NA
BRANCH  23  25
ATOM     24  C   LIG    1      153.837 140.249 181.847  0.00  0.00    +0.022 C 
ATOM     25  C   LIG    1      153.076 139.790 180.595  0.00  0.00    +0.106 C 
ENDBRANCH  23  25
BRANCH  23  26
ATOM     26  C   LIG    1      153.499 137.455 179.945  0.00  0.00    +0.106 C 
ATOM     27  C   LIG    1      154.600 136.774 180.765  0.00  0.00    +0.022 C 
ENDBRANCH  23  26
ENDBRANCH  20  23
ENDBRANCH   1  20
TORSDOF 7
