MODEL 1
REMARK VINA RESULT:      -8.0      0.000      0.000
REMARK  Name = 
REMARK                            x       y       z     vdW  Elec       q    Type
REMARK                         _______ _______ _______ _____ _____    ______ ____
ROOT
ATOM      1  O   LIG    1      169.154 150.554 147.438  0.00  0.00    -0.346 OA
ENDROOT
BRANCH   1   7
ATOM      2  C   LIG    1      166.783 154.926 150.289  0.00  0.00    +0.398 A 
ATOM      3  N   LIG    1      168.058 154.625 150.671  0.00  0.00    -0.128 NA
ATOM      4  C   LIG    1      168.470 153.512 150.078  0.00  0.00    +0.306 A 
ATOM      5  O   LIG    1      169.678 152.801 150.140  0.00  0.00    -0.445 OA
ATOM      6  C   LIG    1      169.772 151.582 149.427  0.00  0.00    +0.240 C 
ATOM      7  C   LIG    1      169.139 152.012 147.925  0.00  0.00    +0.182 C 
ATOM      8  C   LIG    1      167.561 151.867 148.495  0.00  0.00    +0.144 C 
ATOM      9  N   LIG    1      167.466 153.077 149.304  0.00  0.00    -0.272 N 
ATOM     10  C   LIG    1      166.433 153.929 149.423  0.00  0.00    +0.178 A 
BRANCH   2  12
ATOM     11  O   LIG    1      165.228 155.999 151.002  0.00  0.00    +0.043 OA
ATOM     12  N   LIG    1      166.004 156.052 150.719  0.00  0.00    +0.103 N 
ATOM     13  O   LIG    1      166.656 157.287 150.629  0.00  0.00    -0.575 OA
ENDBRANCH   2  12
ENDBRANCH   1   7
BRANCH   1  14
ATOM     14  C   LIG    1      169.516 150.694 146.097  0.00  0.00    +0.169 C 
BRANCH  14  15
ATOM     15  C   LIG    1      169.643 149.346 145.452  0.00  0.00    +0.007 A 
ATOM     16  C   LIG    1      168.543 148.522 145.302  0.00  0.00    +0.001 A 
ATOM     17  C   LIG    1      168.609 147.284 144.719  0.00  0.00    +0.037 A 
ATOM     18  C   LIG    1      169.842 146.828 144.253  0.00  0.00    +0.147 A 
ATOM     19  C   LIG    1      170.952 147.619 144.385  0.00  0.00    +0.037 A 
ATOM     20  C   LIG    1      170.847 148.865 144.980  0.00  0.00    +0.001 A 
BRANCH  18  21
ATOM     21  O   LIG    1      169.907 145.568 143.659  0.00  0.00    -0.404 OA
BRANCH  21  22
ATOM     22  C   LIG    1      170.360 144.471 144.456  0.00  0.00    +0.575 C 
ATOM     23  F   LIG    1      169.562 143.373 144.206  0.00  0.00    -0.133 F 
ATOM     24  F   LIG    1      170.245 144.783 145.807  0.00  0.00    -0.133 F 
ATOM     25  F   LIG    1      171.674 144.202 144.112  0.00  0.00    -0.133 F 
ENDBRANCH  21  22
ENDBRANCH  18  21
ENDBRANCH  14  15
ENDBRANCH   1  14
TORSDOF 6
ENDMDL
MODEL 2
REMARK VINA RESULT:      -7.5      5.577      9.598
REMARK  Name = 
REMARK                            x       y       z     vdW  Elec       q    Type
REMARK                         _______ _______ _______ _____ _____    ______ ____
ROOT
ATOM      1  O   LIG    1      171.813 147.577 145.911  0.00  0.00    -0.346 OA
ENDROOT
BRANCH   1   7
ATOM      2  C   LIG    1      168.482 143.083 144.659  0.00  0.00    +0.398 A 
ATOM      3  N   LIG    1      169.237 143.536 143.617  0.00  0.00    -0.128 NA
ATOM      4  C   LIG    1      169.853 144.665 143.946  0.00  0.00    +0.306 A 
ATOM      5  O   LIG    1      170.724 145.506 143.238  0.00  0.00    -0.445 OA
ATOM      6  C   LIG    1      171.155 146.700 143.863  0.00  0.00    +0.240 C 
ATOM      7  C   LIG    1      171.598 146.146 145.393  0.00  0.00    +0.182 C 
ATOM      8  C   LIG    1      169.994 146.139 145.908  0.00  0.00    +0.144 C 
ATOM      9  N   LIG    1      169.503 144.957 145.207  0.00  0.00    -0.272 N 
ATOM     10  C   LIG    1      168.669 144.002 145.653  0.00  0.00    +0.178 A 
BRANCH   2  12
ATOM     11  O   LIG    1      167.979 141.128 144.615  0.00  0.00    +0.043 OA
ATOM     12  N   LIG    1      167.676 141.896 144.679  0.00  0.00    +0.103 N 
ATOM     13  O   LIG    1      166.301 142.119 144.816  0.00  0.00    -0.575 OA
ENDBRANCH   2  12
ENDBRANCH   1   7
BRANCH   1  14
ATOM     14  C   LIG    1      171.046 148.333 145.022  0.00  0.00    +0.169 C 
BRANCH  14  15
ATOM     15  C   LIG    1      170.606 149.609 145.673  0.00  0.00    +0.007 A 
ATOM     16  C   LIG    1      169.273 149.980 145.685  0.00  0.00    +0.001 A 
ATOM     17  C   LIG    1      168.823 151.136 146.266  0.00  0.00    +0.037 A 
ATOM     18  C   LIG    1      169.748 151.983 146.878  0.00  0.00    +0.147 A 
ATOM     19  C   LIG    1      171.075 151.645 146.886  0.00  0.00    +0.037 A 
ATOM     20  C   LIG    1      171.494 150.469 146.287  0.00  0.00    +0.001 A 
BRANCH  18  21
ATOM     21  O   LIG    1      169.287 153.158 147.470  0.00  0.00    -0.404 OA
BRANCH  21  22
ATOM     22  C   LIG    1      169.027 153.147 148.876  0.00  0.00    +0.575 C 
ATOM     23  F   LIG    1      168.485 154.362 149.243  0.00  0.00    -0.133 F 
ATOM     24  F   LIG    1      170.216 152.981 149.579  0.00  0.00    -0.133 F 
ATOM     25  F   LIG    1      168.138 152.120 149.141  0.00  0.00    -0.133 F 
ENDBRANCH  21  22
ENDBRANCH  18  21
ENDBRANCH  14  15
ENDBRANCH   1  14
TORSDOF 6
ENDMDL
MODEL 3
REMARK VINA RESULT:      -7.4      5.975      8.710
REMARK  Name = 
REMARK                            x       y       z     vdW  Elec       q    Type
REMARK                         _______ _______ _______ _____ _____    ______ ____
ROOT
ATOM      1  O   LIG    1      169.082 145.382 143.774  0.00  0.00    -0.346 OA
ENDROOT
BRANCH   1   7
ATOM      2  C   LIG    1      165.220 143.598 147.615  0.00  0.00    +0.398 A 
ATOM      3  N   LIG    1      166.120 142.647 147.233  0.00  0.00    -0.128 NA
ATOM      4  C   LIG    1      166.871 143.093 146.234  0.00  0.00    +0.306 A 
ATOM      5  O   LIG    1      167.916 142.507 145.505  0.00  0.00    -0.445 OA
ATOM      6  C   LIG    1      168.471 143.239 144.428  0.00  0.00    +0.240 C 
ATOM      7  C   LIG    1      168.695 144.758 145.124  0.00  0.00    +0.182 C 
ATOM      8  C   LIG    1      167.072 145.151 144.906  0.00  0.00    +0.144 C 
ATOM      9  N   LIG    1      166.466 144.340 145.957  0.00  0.00    -0.272 N 
ATOM     10  C   LIG    1      165.462 144.661 146.791  0.00  0.00    +0.178 A 
BRANCH   2  12
ATOM     11  O   LIG    1      164.404 143.611 149.462  0.00  0.00    +0.043 OA
ATOM     12  N   LIG    1      164.244 143.481 148.661  0.00  0.00    +0.103 N 
ATOM     13  O   LIG    1      162.961 143.121 148.231  0.00  0.00    -0.575 OA
ENDBRANCH   2  12
ENDBRANCH   1   7
BRANCH   1  14
ATOM     14  C   LIG    1      170.420 145.727 143.980  0.00  0.00    +0.169 C 
BRANCH  14  15
ATOM     15  C   LIG    1      170.512 147.001 144.764  0.00  0.00    +0.007 A 
ATOM     16  C   LIG    1      169.540 147.979 144.652  0.00  0.00    +0.001 A 
ATOM     17  C   LIG    1      169.581 149.158 145.348  0.00  0.00    +0.037 A 
ATOM     18  C   LIG    1      170.651 149.389 146.213  0.00  0.00    +0.147 A 
ATOM     19  C   LIG    1      171.630 148.442 146.349  0.00  0.00    +0.037 A 
ATOM     20  C   LIG    1      171.556 147.261 145.628  0.00  0.00    +0.001 A 
BRANCH  18  21
ATOM     21  O   LIG    1      170.690 150.590 146.920  0.00  0.00    -0.404 OA
BRANCH  21  22
ATOM     22  C   LIG    1      171.497 151.650 146.404  0.00  0.00    +0.575 C 
ATOM     23  F   LIG    1      171.414 151.649 145.026  0.00  0.00    -0.133 F 
ATOM     24  F   LIG    1      172.829 151.448 146.750  0.00  0.00    -0.133 F 
ATOM     25  F   LIG    1      171.020 152.844 146.916  0.00  0.00    -0.133 F 
ENDBRANCH  21  22
ENDBRANCH  18  21
ENDBRANCH  14  15
ENDBRANCH   1  14
TORSDOF 6
ENDMDL
MODEL 4
REMARK VINA RESULT:      -7.0     11.450     12.679
REMARK  Name = 
REMARK                            x       y       z     vdW  Elec       q    Type
REMARK                         _______ _______ _______ _____ _____    ______ ____
ROOT
ATOM      1  O   LIG    1      177.719 149.598 155.406  0.00  0.00    -0.346 OA
ENDROOT
BRANCH   1   7
ATOM      2  C   LIG    1      174.138 147.444 159.330  0.00  0.00    +0.398 A 
ATOM      3  N   LIG    1      175.008 148.379 159.809  0.00  0.00    -0.128 NA
ATOM      4  C   LIG    1      175.897 148.706 158.880  0.00  0.00    +0.306 A 
ATOM      5  O   LIG    1      176.976 149.602 158.879  0.00  0.00    -0.445 OA
ATOM      6  C   LIG    1      177.794 149.663 157.726  0.00  0.00    +0.240 C 
ATOM      7  C   LIG    1      176.645 149.748 156.495  0.00  0.00    +0.182 C 
ATOM      8  C   LIG    1      176.389 148.084 156.554  0.00  0.00    +0.144 C 
ATOM      9  N   LIG    1      175.613 147.985 157.786  0.00  0.00    -0.272 N 
ATOM     10  C   LIG    1      174.545 147.213 158.046  0.00  0.00    +0.178 A 
BRANCH   2  12
ATOM     11  O   LIG    1      172.247 146.962 159.847  0.00  0.00    +0.043 OA
ATOM     12  N   LIG    1      173.043 146.850 160.042  0.00  0.00    +0.103 N 
ATOM     13  O   LIG    1      173.413 146.041 161.123  0.00  0.00    -0.575 OA
ENDBRANCH   2  12
ENDBRANCH   1   7
BRANCH   1  14
ATOM     14  C   LIG    1      177.804 150.893 154.893  0.00  0.00    +0.169 C 
BRANCH  14  15
ATOM     15  C   LIG    1      178.025 150.850 153.410  0.00  0.00    +0.007 A 
ATOM     16  C   LIG    1      178.462 149.695 152.789  0.00  0.00    +0.001 A 
ATOM     17  C   LIG    1      178.678 149.608 151.438  0.00  0.00    +0.037 A 
ATOM     18  C   LIG    1      178.447 150.734 150.648  0.00  0.00    +0.147 A 
ATOM     19  C   LIG    1      178.014 151.895 151.232  0.00  0.00    +0.037 A 
ATOM     20  C   LIG    1      177.806 151.946 152.601  0.00  0.00    +0.001 A 
BRANCH  18  21
ATOM     21  O   LIG    1      178.667 150.643 149.275  0.00  0.00    -0.404 OA
BRANCH  21  22
ATOM     22  C   LIG    1      179.930 151.076 148.764  0.00  0.00    +0.575 C 
ATOM     23  F   LIG    1      180.378 150.161 147.834  0.00  0.00    -0.133 F 
ATOM     24  F   LIG    1      180.866 151.132 149.792  0.00  0.00    -0.133 F 
ATOM     25  F   LIG    1      179.754 152.318 148.177  0.00  0.00    -0.133 F 
ENDBRANCH  21  22
ENDBRANCH  18  21
ENDBRANCH  14  15
ENDBRANCH   1  14
TORSDOF 6
ENDMDL
MODEL 5
REMARK VINA RESULT:      -6.6      6.995      9.944
REMARK  Name = 
REMARK                            x       y       z     vdW  Elec       q    Type
REMARK                         _______ _______ _______ _____ _____    ______ ____
ROOT
ATOM      1  O   LIG    1      166.782 146.566 152.055  0.00  0.00    -0.346 OA
ENDROOT
BRANCH   1   7
ATOM      2  C   LIG    1      164.687 143.661 147.580  0.00  0.00    +0.398 A 
ATOM      3  N   LIG    1      164.268 143.208 148.796  0.00  0.00    -0.128 NA
ATOM      4  C   LIG    1      164.918 143.828 149.773  0.00  0.00    +0.306 A 
ATOM      5  O   LIG    1      164.850 143.720 151.169  0.00  0.00    -0.445 OA
ATOM      6  C   LIG    1      165.752 144.487 151.943  0.00  0.00    +0.240 C 
ATOM      7  C   LIG    1      165.619 146.005 151.222  0.00  0.00    +0.182 C 
ATOM      8  C   LIG    1      166.655 145.555 149.972  0.00  0.00    +0.144 C 
ATOM      9  N   LIG    1      165.767 144.692 149.199  0.00  0.00    -0.272 N 
ATOM     10  C   LIG    1      165.637 144.601 147.865  0.00  0.00    +0.178 A 
BRANCH   2  12
ATOM     11  O   LIG    1      164.681 143.207 145.612  0.00  0.00    +0.043 OA
ATOM     12  N   LIG    1      164.215 143.228 146.296  0.00  0.00    +0.103 N 
ATOM     13  O   LIG    1      162.873 142.829 146.265  0.00  0.00    -0.575 OA
ENDBRANCH   2  12
ENDBRANCH   1   7
BRANCH   1  14
ATOM     14  C   LIG    1      166.228 147.729 152.592  0.00  0.00    +0.169 C 
BRANCH  14  15
ATOM     15  C   LIG    1      166.318 148.851 151.601  0.00  0.00    +0.007 A 
ATOM     16  C   LIG    1      165.283 149.756 151.454  0.00  0.00    +0.001 A 
ATOM     17  C   LIG    1      165.319 150.796 150.563  0.00  0.00    +0.037 A 
ATOM     18  C   LIG    1      166.452 150.956 149.764  0.00  0.00    +0.147 A 
ATOM     19  C   LIG    1      167.496 150.078 149.885  0.00  0.00    +0.037 A 
ATOM     20  C   LIG    1      167.424 149.037 150.797  0.00  0.00    +0.001 A 
BRANCH  18  21
ATOM     21  O   LIG    1      166.487 152.016 148.859  0.00  0.00    -0.404 OA
BRANCH  21  22
ATOM     22  C   LIG    1      166.730 153.329 149.369  0.00  0.00    +0.575 C 
ATOM     23  F   LIG    1      167.384 154.071 148.406  0.00  0.00    -0.133 F 
ATOM     24  F   LIG    1      167.554 153.261 150.488  0.00  0.00    -0.133 F 
ATOM     25  F   LIG    1      165.509 153.903 149.677  0.00  0.00    -0.133 F 
ENDBRANCH  21  22
ENDBRANCH  18  21
ENDBRANCH  14  15
ENDBRANCH   1  14
TORSDOF 6
ENDMDL
MODEL 6
REMARK VINA RESULT:      -6.4      5.277      7.610
REMARK  Name = 
REMARK                            x       y       z     vdW  Elec       q    Type
REMARK                         _______ _______ _______ _____ _____    ______ ____
ROOT
ATOM      1  O   LIG    1      169.197 144.804 146.723  0.00  0.00    -0.346 OA
ENDROOT
BRANCH   1   7
ATOM      2  C   LIG    1      171.092 150.168 146.018  0.00  0.00    +0.398 A 
ATOM      3  N   LIG    1      170.968 149.454 144.862  0.00  0.00    -0.128 NA
ATOM      4  C   LIG    1      170.679 148.186 145.127  0.00  0.00    +0.306 A 
ATOM      5  O   LIG    1      170.458 147.076 144.300  0.00  0.00    -0.445 OA
ATOM      6  C   LIG    1      170.241 145.819 144.913  0.00  0.00    +0.240 C 
ATOM      7  C   LIG    1      169.109 146.207 146.100  0.00  0.00    +0.182 C 
ATOM      8  C   LIG    1      170.311 146.798 147.121  0.00  0.00    +0.144 C 
ATOM      9  N   LIG    1      170.612 148.064 146.460  0.00  0.00    -0.272 N 
ATOM     10  C   LIG    1      170.861 149.262 147.015  0.00  0.00    +0.178 A 
BRANCH   2  12
ATOM     11  O   LIG    1      171.998 151.872 146.613  0.00  0.00    +0.043 OA
ATOM     12  N   LIG    1      171.398 151.565 146.132  0.00  0.00    +0.103 N 
ATOM     13  O   LIG    1      170.595 152.409 145.356  0.00  0.00    -0.575 OA
ENDBRANCH   2  12
ENDBRANCH   1   7
BRANCH   1  14
ATOM     14  C   LIG    1      170.554 144.703 147.035  0.00  0.00    +0.169 C 
BRANCH  14  15
ATOM     15  C   LIG    1      170.794 143.523 147.929  0.00  0.00    +0.007 A 
ATOM     16  C   LIG    1      171.882 142.693 147.734  0.00  0.00    +0.001 A 
ATOM     17  C   LIG    1      172.142 141.603 148.524  0.00  0.00    +0.037 A 
ATOM     18  C   LIG    1      171.272 141.315 149.576  0.00  0.00    +0.147 A 
ATOM     19  C   LIG    1      170.185 142.118 149.797  0.00  0.00    +0.037 A 
ATOM     20  C   LIG    1      169.953 143.210 148.977  0.00  0.00    +0.001 A 
BRANCH  18  21
ATOM     21  O   LIG    1      171.540 140.206 150.379  0.00  0.00    -0.404 OA
BRANCH  21  22
ATOM     22  C   LIG    1      172.199 140.424 151.628  0.00  0.00    +0.575 C 
ATOM     23  F   LIG    1      171.250 140.516 152.627  0.00  0.00    -0.133 F 
ATOM     24  F   LIG    1      172.901 141.624 151.595  0.00  0.00    -0.133 F 
ATOM     25  F   LIG    1      173.044 139.352 151.861  0.00  0.00    -0.133 F 
ENDBRANCH  21  22
ENDBRANCH  18  21
ENDBRANCH  14  15
ENDBRANCH   1  14
TORSDOF 6
ENDMDL
MODEL 7
REMARK VINA RESULT:      -6.4     67.315     69.213
REMARK  Name = 
REMARK                            x       y       z     vdW  Elec       q    Type
REMARK                         _______ _______ _______ _____ _____    ______ ____
ROOT
ATOM      1  O   LIG    1      188.970  86.324 157.526  0.00  0.00    -0.346 OA
ENDROOT
BRANCH   1   7
ATOM      2  C   LIG    1      194.628  87.201 157.804  0.00  0.00    +0.398 A 
ATOM      3  N   LIG    1      193.883  88.072 158.542  0.00  0.00    -0.128 NA
ATOM      4  C   LIG    1      192.590  87.901 158.298  0.00  0.00    +0.306 A 
ATOM      5  O   LIG    1      191.443  88.536 158.796  0.00  0.00    -0.445 OA
ATOM      6  C   LIG    1      190.187  88.160 158.264  0.00  0.00    +0.240 C 
ATOM      7  C   LIG    1      190.286  86.478 158.306  0.00  0.00    +0.182 C 
ATOM      8  C   LIG    1      191.196  86.448 156.888  0.00  0.00    +0.144 C 
ATOM      9  N   LIG    1      192.482  86.914 157.398  0.00  0.00    -0.272 N 
ATOM     10  C   LIG    1      193.715  86.479 157.088  0.00  0.00    +0.178 A 
BRANCH   2  12
ATOM     11  O   LIG    1      196.476  86.458 158.138  0.00  0.00    +0.043 OA
ATOM     12  N   LIG    1      196.059  87.088 157.800  0.00  0.00    +0.103 N 
ATOM     13  O   LIG    1      196.731  88.142 157.170  0.00  0.00    -0.575 OA
ENDBRANCH   2  12
ENDBRANCH   1   7
BRANCH   1  14
ATOM     14  C   LIG    1      188.845  84.937 157.428  0.00  0.00    +0.169 C 
BRANCH  14  15
ATOM     15  C   LIG    1      187.518  84.497 157.968  0.00  0.00    +0.007 A 
ATOM     16  C   LIG    1      186.483  85.398 158.136  0.00  0.00    +0.001 A 
ATOM     17  C   LIG    1      185.253  85.044 158.626  0.00  0.00    +0.037 A 
ATOM     18  C   LIG    1      185.029  83.711 158.974  0.00  0.00    +0.147 A 
ATOM     19  C   LIG    1      186.033  82.792 158.819  0.00  0.00    +0.037 A 
ATOM     20  C   LIG    1      187.263  83.187 158.321  0.00  0.00    +0.001 A 
BRANCH  18  21
ATOM     21  O   LIG    1      183.777  83.352 159.471  0.00  0.00    -0.404 OA
BRANCH  21  22
ATOM     22  C   LIG    1      183.515  83.576 160.859  0.00  0.00    +0.575 C 
ATOM     23  F   LIG    1      184.711  83.594 161.546  0.00  0.00    -0.133 F 
ATOM     24  F   LIG    1      182.744  82.538 161.372  0.00  0.00    -0.133 F 
ATOM     25  F   LIG    1      182.866  84.793 160.983  0.00  0.00    -0.133 F 
ENDBRANCH  21  22
ENDBRANCH  18  21
ENDBRANCH  14  15
ENDBRANCH   1  14
TORSDOF 6
ENDMDL
MODEL 8
REMARK VINA RESULT:      -6.3     65.935     68.805
REMARK  Name = 
REMARK                            x       y       z     vdW  Elec       q    Type
REMARK                         _______ _______ _______ _____ _____    ______ ____
ROOT
ATOM      1  O   LIG    1      189.089  87.137 156.983  0.00  0.00    -0.346 OA
ENDROOT
BRANCH   1   7
ATOM      2  C   LIG    1      190.917  82.964 160.461  0.00  0.00    +0.398 A 
ATOM      3  N   LIG    1      190.411  82.529 159.272  0.00  0.00    -0.128 NA
ATOM      4  C   LIG    1      189.870  83.537 158.600  0.00  0.00    +0.306 A 
ATOM      5  O   LIG    1      189.234  83.607 157.352  0.00  0.00    -0.445 OA
ATOM      6  C   LIG    1      188.690  84.849 156.948  0.00  0.00    +0.240 C 
ATOM      7  C   LIG    1      189.956  85.906 157.292  0.00  0.00    +0.182 C 
ATOM      8  C   LIG    1      189.540  85.951 158.924  0.00  0.00    +0.144 C 
ATOM      9  N   LIG    1      190.019  84.639 159.348  0.00  0.00    -0.272 N 
ATOM     10  C   LIG    1      190.655  84.305 160.484  0.00  0.00    +0.178 A 
BRANCH   2  12
ATOM     11  O   LIG    1      192.004  82.475 162.091  0.00  0.00    +0.043 OA
ATOM     12  N   LIG    1      191.576  82.165 161.455  0.00  0.00    +0.103 N 
ATOM     13  O   LIG    1      191.448  80.782 161.278  0.00  0.00    -0.575 OA
ENDBRANCH   2  12
ENDBRANCH   1   7
BRANCH   1  14
ATOM     14  C   LIG    1      189.894  88.186 157.428  0.00  0.00    +0.169 C 
BRANCH  14  15
ATOM     15  C   LIG    1      190.692  88.747 156.289  0.00  0.00    +0.007 A 
ATOM     16  C   LIG    1      192.054  88.951 156.406  0.00  0.00    +0.001 A 
ATOM     17  C   LIG    1      192.825  89.460 155.393  0.00  0.00    +0.037 A 
ATOM     18  C   LIG    1      192.211  89.789 154.185  0.00  0.00    +0.147 A 
ATOM     19  C   LIG    1      190.863  89.599 154.035  0.00  0.00    +0.037 A 
ATOM     20  C   LIG    1      190.116  89.082 155.081  0.00  0.00    +0.001 A 
BRANCH  18  21
ATOM     21  O   LIG    1      192.997  90.306 153.155  0.00  0.00    -0.404 OA
BRANCH  21  22
ATOM     22  C   LIG    1      193.821  89.401 152.418  0.00  0.00    +0.575 C 
ATOM     23  F   LIG    1      193.651  88.127 152.920  0.00  0.00    -0.133 F 
ATOM     24  F   LIG    1      195.161  89.744 152.570  0.00  0.00    -0.133 F 
ATOM     25  F   LIG    1      193.436  89.454 151.089  0.00  0.00    -0.133 F 
ENDBRANCH  21  22
ENDBRANCH  18  21
ENDBRANCH  14  15
ENDBRANCH   1  14
TORSDOF 6
ENDMDL
MODEL 9
REMARK VINA RESULT:      -6.3     67.215     69.087
REMARK  Name = 
REMARK                            x       y       z     vdW  Elec       q    Type
REMARK                         _______ _______ _______ _____ _____    ______ ____
ROOT
ATOM      1  O   LIG    1      190.065  84.538 157.037  0.00  0.00    -0.346 OA
ENDROOT
BRANCH   1   7
ATOM      2  C   LIG    1      185.044  83.771 159.692  0.00  0.00    +0.398 A 
ATOM      3  N   LIG    1      185.687  82.617 159.353  0.00  0.00    -0.128 NA
ATOM      4  C   LIG    1      186.754  82.881 158.609  0.00  0.00    +0.306 A 
ATOM      5  O   LIG    1      187.724  82.055 158.022  0.00  0.00    -0.445 OA
ATOM      6  C   LIG    1      188.711  82.659 157.208  0.00  0.00    +0.240 C 
ATOM      7  C   LIG    1      189.199  83.958 158.166  0.00  0.00    +0.182 C 
ATOM      8  C   LIG    1      187.865  84.871 157.690  0.00  0.00    +0.144 C 
ATOM      9  N   LIG    1      186.813  84.212 158.457  0.00  0.00    -0.272 N 
ATOM     10  C   LIG    1      185.779  84.766 159.111  0.00  0.00    +0.178 A 
BRANCH   2  12
ATOM     11  O   LIG    1      183.694  84.520 160.994  0.00  0.00    +0.043 OA
ATOM     12  N   LIG    1      183.855  83.885 160.487  0.00  0.00    +0.103 N 
ATOM     13  O   LIG    1      182.952  82.824 160.353  0.00  0.00    -0.575 OA
ENDBRANCH   2  12
ENDBRANCH   1   7
BRANCH   1  14
ATOM     14  C   LIG    1      190.518  85.734 157.597  0.00  0.00    +0.169 C 
BRANCH  14  15
ATOM     15  C   LIG    1      191.401  86.459 156.627  0.00  0.00    +0.007 A 
ATOM     16  C   LIG    1      192.293  85.771 155.825  0.00  0.00    +0.001 A 
ATOM     17  C   LIG    1      193.121  86.390 154.924  0.00  0.00    +0.037 A 
ATOM     18  C   LIG    1      193.064  87.778 154.805  0.00  0.00    +0.147 A 
ATOM     19  C   LIG    1      192.191  88.491 155.585  0.00  0.00    +0.037 A 
ATOM     20  C   LIG    1      191.371  87.832 156.485  0.00  0.00    +0.001 A 
BRANCH  18  21
ATOM     21  O   LIG    1      193.906  88.405 153.888  0.00  0.00    -0.404 OA
BRANCH  21  22
ATOM     22  C   LIG    1      195.067  89.074 154.386  0.00  0.00    +0.575 C 
ATOM     23  F   LIG    1      195.503  88.429 155.526  0.00  0.00    -0.133 F 
ATOM     24  F   LIG    1      194.751  90.384 154.732  0.00  0.00    -0.133 F 
ATOM     25  F   LIG    1      196.042  89.034 153.404  0.00  0.00    -0.133 F 
ENDBRANCH  21  22
ENDBRANCH  18  21
ENDBRANCH  14  15
ENDBRANCH   1  14
TORSDOF 6
ENDMDL
