REMARK VINA RESULT:      -5.9      2.474      3.494
REMARK  Name = ZINC000000622877
REMARK                            x       y       z     vdW  Elec       q    Type
REMARK                         _______ _______ _______ _____ _____    ______ ____
ROOT
ATOM      1  O   LIG    1      203.477 113.759 147.298  0.00  0.00    -0.274 OA
ATOM      2  C   LIG    1      203.830 112.670 146.875  0.00  0.00    +0.235 C 
ATOM      3  N   LIG    1      203.504 112.292 145.609  0.00  0.00    -0.219 N 
ATOM      4  H   LIG    1      203.944 111.464 145.173  0.00  0.00    +0.176 HD
ENDROOT
BRANCH   3   5
ATOM      5  N   LIG    1      202.732 113.172 144.712  0.00  0.00    -0.217 N 
ATOM      6  C   LIG    1      203.342 114.085 143.836  0.00  0.00    +0.079 A 
ATOM      7  C   LIG    1      202.419 114.631 143.004  0.00  0.00    +0.078 A 
ATOM      8  S   LIG    1      200.806 114.071 143.309  0.00  0.00    -0.033 S 
ATOM      9  C   LIG    1      201.365 113.050 144.597  0.00  0.00    +0.308 A 
ATOM     10  O   LIG    1      200.667 112.321 145.335  0.00  0.00    -0.258 OA
BRANCH   6  11
ATOM     11  C   LIG    1      204.772 114.358 143.879  0.00  0.00    +0.001 A 
ATOM     12  C   LIG    1      205.269 115.508 144.506  0.00  0.00    +0.010 A 
ATOM     13  C   LIG    1      206.634 115.768 144.537  0.00  0.00    +0.001 A 
ATOM     14  C   LIG    1      207.526 114.882 143.942  0.00  0.00    +0.000 A 
ATOM     15  C   LIG    1      207.048 113.735 143.317  0.00  0.00    +0.001 A 
ATOM     16  C   LIG    1      205.683 113.475 143.286  0.00  0.00    +0.010 A 
ENDBRANCH   6  11
ENDBRANCH   3   5
BRANCH   2  17
ATOM     17  C   LIG    1      204.643 111.706 147.718  0.00  0.00    +0.132 C 
BRANCH  17  18
ATOM     18  C   LIG    1      206.079 111.728 147.211  0.00  0.00    -0.039 A 
ATOM     19  C   LIG    1      206.873 112.861 147.387  0.00  0.00    +0.005 A 
ATOM     20  C   LIG    1      208.190 112.871 146.939  0.00  0.00    +0.015 A 
ATOM     21  C   LIG    1      208.725 111.749 146.311  0.00  0.00    +0.018 A 
ATOM     22 BR   LIG    1      210.518 111.764 145.706  0.00  0.00    -0.050 Br
ATOM     23  C   LIG    1      207.935 110.617 146.132  0.00  0.00    +0.015 A 
ATOM     24  C   LIG    1      206.617 110.607 146.577  0.00  0.00    +0.005 A 
ENDBRANCH  17  18
ENDBRANCH   2  17
TORSDOF 4
