REMARK VINA RESULT:      -7.4      3.156      6.603
REMARK  Name = ZINC000000622956
REMARK                            x       y       z     vdW  Elec       q    Type
REMARK                         _______ _______ _______ _____ _____    ______ ____
ROOT
ATOM      1  C   LIG    1      168.626 146.000 147.646  0.00  0.00    +0.271 C 
ATOM      2  N   LIG    1      169.660 146.878 147.153  0.00  0.00    -0.157 N 
ATOM      3  C   LIG    1      170.438 146.286 146.273  0.00  0.00    +0.250 C 
ATOM      4  C   LIG    1      171.595 146.949 145.540  0.00  0.00    +0.124 C 
ATOM      5  C   LIG    1      171.176 147.118 144.062  0.00  0.00    +0.012 C 
ATOM      6  C   LIG    1      171.327 145.777 143.320  0.00  0.00    +0.004 C 
ATOM      7  C   LIG    1      170.344 144.661 143.729  0.00  0.00    +0.045 C 
ATOM      8  C   LIG    1      170.698 144.126 145.130  0.00  0.00    +0.236 C 
ATOM      9  N   LIG    1      170.072 145.044 146.090  0.00  0.00    -0.258 N 
ATOM     10  C   LIG    1      168.878 144.678 146.882  0.00  0.00    +0.323 C 
ENDROOT
BRANCH   1  11
ATOM     11  C   LIG    1      168.734 145.797 149.162  0.00  0.00    +0.034 A 
ATOM     12  C   LIG    1      167.883 146.477 150.053  0.00  0.00    +0.060 A 
ATOM     13  C   LIG    1      168.022 146.244 151.413  0.00  0.00    +0.167 A 
ATOM     14  O   LIG    1      167.301 146.802 152.408  0.00  0.00    -0.453 OA
ATOM     15  C   LIG    1      167.822 146.218 153.670  0.00  0.00    +0.466 C 
ATOM     16  O   LIG    1      168.909 145.300 153.249  0.00  0.00    -0.453 OA
ATOM     17  C   LIG    1      168.956 145.370 151.902  0.00  0.00    +0.166 A 
ATOM     18  C   LIG    1      169.805 144.678 151.055  0.00  0.00    +0.050 A 
ATOM     19  C   LIG    1      169.687 144.894 149.681  0.00  0.00    +0.014 A 
ENDBRANCH   1  11
BRANCH   2  20
ATOM     20  C   LIG    1      169.757 148.244 147.512  0.00  0.00    +0.124 A 
ATOM     21  C   LIG    1      169.035 149.179 146.773  0.00  0.00    +0.050 A 
ATOM     22  C   LIG    1      169.125 150.526 147.113  0.00  0.00    +0.024 A 
ATOM     23  C   LIG    1      169.933 150.922 148.184  0.00  0.00    +0.041 A 
ATOM     24 CL   LIG    1      170.043 152.596 148.604  0.00  0.00    -0.084 Cl
ATOM     25  C   LIG    1      170.656 149.973 148.915  0.00  0.00    +0.024 A 
ATOM     26  C   LIG    1      170.570 148.624 148.579  0.00  0.00    +0.050 A 
ENDBRANCH   2  20
BRANCH   1  27
ATOM     27  O   LIG    1      167.386 146.580 147.265  0.00  0.00    -0.347 OA
ATOM     28  H   LIG    1      167.135 146.206 146.407  0.00  0.00    +0.215 HD
ENDBRANCH   1  27
TORSDOF 3
