REMARK VINA RESULT:      -7.1     78.215     79.756
REMARK  Name = ZINC000006087141
REMARK                            x       y       z     vdW  Elec       q    Type
REMARK                         _______ _______ _______ _____ _____    ______ ____
ROOT
ATOM      1  C   LIG    1      195.963  89.807 158.079  0.00  0.00    +0.222 C 
ENDROOT
BRANCH   1   2
ATOM      2  N   LIG    1      197.316  90.416 158.099  0.00  0.00    -0.290 N 
ATOM      3  C   LIG    1      198.391  89.719 158.623  0.00  0.00    +0.262 A 
ATOM      4  O   LIG    1      198.165  88.607 159.103  0.00  0.00    -0.267 OA
ATOM      5  C   LIG    1      199.698  90.332 158.560  0.00  0.00    +0.068 A 
ATOM      6  C   LIG    1      200.840  89.694 159.068  0.00  0.00    +0.035 A 
ATOM      7  C   LIG    1      202.080  90.319 158.987  0.00  0.00    +0.043 A 
ATOM      8 CL   LIG    1      203.485  89.525 159.609  0.00  0.00    -0.083 Cl
ATOM      9  C   LIG    1      202.196  91.583 158.404  0.00  0.00    +0.042 A 
ATOM     10  C   LIG    1      201.069  92.219 157.898  0.00  0.00    +0.068 A 
ATOM     11 CL   LIG    1      201.252  93.789 157.181  0.00  0.00    -0.081 Cl
ATOM     12  C   LIG    1      199.802  91.597 157.967  0.00  0.00    +0.096 A 
ATOM     13  N   LIG    1      198.647  92.213 157.447  0.00  0.00    -0.235 NA
ATOM     14  C   LIG    1      197.499  91.653 157.505  0.00  0.00    +0.203 A 
ENDBRANCH   1   2
BRANCH   1  17
ATOM     15  N   LIG    1      195.043  90.041 155.806  0.00  0.00    -0.281 N 
ATOM     16  H   LIG    1      194.640  90.908 156.212  0.00  0.00    +0.155 HD
ATOM     17  C   LIG    1      195.748  89.255 156.682  0.00  0.00    +0.237 C 
ATOM     18  O   LIG    1      196.123  88.141 156.376  0.00  0.00    -0.274 OA
BRANCH  15  20
ATOM     19  C   LIG    1      193.254  89.778 154.221  0.00  0.00    +0.141 A 
ATOM     20  C   LIG    1      194.633  89.771 154.473  0.00  0.00    +0.076 A 
ATOM     21  C   LIG    1      195.533  89.528 153.432  0.00  0.00    +0.030 A 
ATOM     22  C   LIG    1      195.054  89.274 152.146  0.00  0.00    -0.048 A 
ATOM     23  C   LIG    1      196.025  89.012 151.016  0.00  0.00    +0.044 C 
ATOM     24  C   LIG    1      193.679  89.280 151.903  0.00  0.00    +0.007 A 
ATOM     25  C   LIG    1      192.777  89.531 152.936  0.00  0.00    +0.048 A 
BRANCH  19  27
ATOM     26  C   LIG    1      191.529  89.064 155.913  0.00  0.00    +0.277 C 
ATOM     27  O   LIG    1      192.390  90.038 155.284  0.00  0.00    -0.493 OA
ENDBRANCH  19  27
ENDBRANCH  15  20
ENDBRANCH   1  17
TORSDOF 4
