REMARK VINA RESULT:      -7.6      2.593      3.268
REMARK  Name = 
REMARK                            x       y       z     vdW  Elec       q    Type
REMARK                         _______ _______ _______ _____ _____    ______ ____
ROOT
ATOM      1  C   LIG    1      168.222 143.740 146.931  0.00  0.00    +0.035 A 
ATOM      2  C   LIG    1      169.374 144.473 146.764  0.00  0.00    +0.007 A 
ATOM      3  C   LIG    1      169.999 144.519 145.521  0.00  0.00    +0.051 A 
ATOM      4  C   LIG    1      169.505 143.850 144.422  0.00  0.00    +0.086 A 
ATOM      5  N   LIG    1      170.103 143.888 143.208  0.00  0.00    -0.224 NA
ATOM      6  C   LIG    1      171.222 144.613 143.092  0.00  0.00    +0.200 A 
ATOM      7  N   LIG    1      171.728 145.280 144.153  0.00  0.00    -0.207 NA
ATOM      8  C   LIG    1      168.341 143.119 144.618  0.00  0.00    +0.019 A 
ATOM      9  C   LIG    1      171.167 145.263 145.356  0.00  0.00    +0.155 A 
ATOM     10  C   LIG    1      167.715 143.065 145.843  0.00  0.00    +0.005 A 
ENDROOT
BRANCH   1  13
ATOM     11  C   LIG    1      167.092 144.053 150.323  0.00  0.00    +0.140 A 
ATOM     12  O   LIG    1      167.885 144.320 149.324  0.00  0.00    -0.456 OA
ATOM     13  C   LIG    1      167.580 143.701 148.239  0.00  0.00    +0.145 A 
ATOM     14  C   LIG    1      166.458 142.926 148.519  0.00  0.00    +0.040 A 
ATOM     15  C   LIG    1      166.154 143.153 149.838  0.00  0.00    +0.038 A 
BRANCH  11  16
ATOM     16  C   LIG    1      167.140 144.583 151.727  0.00  0.00    +0.153 C 
BRANCH  16  17
ATOM     17  N   LIG    1      166.390 143.697 152.610  0.00  0.00    -0.208 NA
BRANCH  17  18
ATOM     18  C   LIG    1      166.834 143.936 153.965  0.00  0.00    +0.114 C 
BRANCH  18  19
ATOM     19  C   LIG    1      168.099 144.746 154.022  0.00  0.00    +0.170 C 
BRANCH  19  21
ATOM     20  C   LIG    1      170.102 145.872 155.770  0.00  0.00    +0.176 C 
ATOM     21  S   LIG    1      168.424 145.358 155.657  0.00  0.00    -0.007 S 
ATOM     22  O   LIG    1      168.232 144.207 156.614  0.00  0.00    -0.173 OA
ATOM     23  O   LIG    1      167.507 146.502 156.008  0.00  0.00    -0.173 OA
ENDBRANCH  19  21
ENDBRANCH  18  19
ENDBRANCH  17  18
ENDBRANCH  16  17
ENDBRANCH  11  16
ENDBRANCH   1  13
BRANCH   9  24
ATOM     24  N   LIG    1      171.658 145.938 146.486  0.00  0.00    -0.194 NA
BRANCH  24  25
ATOM     25  C   LIG    1      171.360 147.279 146.725  0.00  0.00    +0.073 A 
ATOM     26  C   LIG    1      171.314 148.232 145.704  0.00  0.00    +0.031 A 
ATOM     27  C   LIG    1      171.015 149.527 146.001  0.00  0.00    +0.093 A 
ATOM     28 CL   LIG    1      170.951 150.781 144.749  0.00  0.00    -0.079 Cl
ATOM     29  C   LIG    1      170.753 149.947 147.291  0.00  0.00    +0.150 A 
ATOM     30  C   LIG    1      170.796 149.017 148.306  0.00  0.00    +0.039 A 
ATOM     31  C   LIG    1      171.096 147.714 148.004  0.00  0.00    +0.020 A 
BRANCH  29  32
ATOM     32  O   LIG    1      170.448 151.295 147.555  0.00  0.00    -0.470 OA
BRANCH  32  33
ATOM     33  C   LIG    1      170.186 151.653 148.907  0.00  0.00    +0.232 C 
BRANCH  33  34
ATOM     34  C   LIG    1      169.042 152.593 148.894  0.00  0.00    +0.023 A 
ATOM     35  C   LIG    1      168.773 153.442 149.947  0.00  0.00    +0.029 A 
ATOM     36  C   LIG    1      167.678 154.308 149.870  0.00  0.00    +0.140 A 
ATOM     37  F   LIG    1      167.371 155.164 150.880  0.00  0.00    -0.204 F 
ATOM     38  C   LIG    1      166.871 154.317 148.757  0.00  0.00    +0.030 A 
ATOM     39  C   LIG    1      167.135 153.481 147.715  0.00  0.00    +0.002 A 
ATOM     40  C   LIG    1      168.220 152.625 147.793  0.00  0.00    -0.001 A 
ENDBRANCH  33  34
ENDBRANCH  32  33
ENDBRANCH  29  32
ENDBRANCH  24  25
ENDBRANCH   9  24
TORSDOF 11
