REMARK VINA RESULT:      -4.2      6.918      8.827
REMARK  Name = 
REMARK                            x       y       z     vdW  Elec       q    Type
REMARK                         _______ _______ _______ _____ _____    ______ ____
ROOT
ATOM      1  C   LIG    1      162.021 162.093 151.351  0.00  0.00    +0.160 A 
ATOM      2  N   LIG    1      162.558 163.316 151.205  0.00  0.00    -0.236 NA
ATOM      3  C   LIG    1      161.877 164.345 150.684  0.00  0.00    +0.120 A 
ATOM      4  C   LIG    1      160.570 164.207 150.266  0.00  0.00    +0.120 A 
ATOM      5  N   LIG    1      160.020 162.989 150.406  0.00  0.00    -0.239 NA
ATOM      6  C   LIG    1      160.703 161.953 150.929  0.00  0.00    +0.123 A 
ENDROOT
BRANCH   1   8
ATOM      7  N   LIG    1      162.804 160.681 153.165  0.00  0.00    -0.101 NA
ATOM      8  C   LIG    1      162.777 160.986 151.918  0.00  0.00    +0.316 C 
ATOM      9  O   LIG    1      163.524 160.199 151.060  0.00  0.00    -0.262 OA
ENDBRANCH   1   8
TORSDOF 1
