REMARK VINA RESULT:      -7.9      2.350      3.689
REMARK  Name = 
REMARK                            x       y       z     vdW  Elec       q    Type
REMARK                         _______ _______ _______ _____ _____    ______ ____
ROOT
ATOM      1  C   LIG    1      208.068 111.143 144.138  0.00  0.00    +0.072 C 
ATOM      2  C   LIG    1      206.884 111.853 143.331  0.00  0.00    +0.070 C 
ATOM      3  N   LIG    1      207.715 112.226 142.083  0.00  0.00    -0.269 NA
ATOM      4  C   LIG    1      207.600 113.607 141.918  0.00  0.00    +0.073 C 
ATOM      5  C   LIG    1      208.024 114.050 143.327  0.00  0.00    +0.024 C 
ATOM      6  C   LIG    1      208.914 111.588 141.917  0.00  0.00    +0.099 C 
ATOM      7  C   LIG    1      209.854 112.001 143.031  0.00  0.00    -0.013 C 
ATOM      8  C   LIG    1      206.939 113.298 144.030  0.00  0.00    +0.055 C 
ATOM      9  C   LIG    1      207.384 113.060 145.544  0.00  0.00    +0.120 C 
ATOM     10  C   LIG    1      206.560 111.745 145.950  0.00  0.00    +0.268 C 
ATOM     11  O   LIG    1      206.881 111.866 147.319  0.00  0.00    -0.209 OA
ATOM     12  N   LIG    1      206.350 114.015 146.218  0.00  0.00    -0.304 N 
ATOM     13  C   LIG    1      206.433 114.341 147.613  0.00  0.00    +0.112 C 
ATOM     14  C   LIG    1      205.440 114.431 145.270  0.00  0.00    +0.047 A 
ATOM     15  C   LIG    1      204.305 115.176 145.479  0.00  0.00    +0.051 A 
ATOM     16  C   LIG    1      203.446 115.561 144.475  0.00  0.00    +0.137 A 
ATOM     17  C   LIG    1      203.764 115.169 143.207  0.00  0.00    +0.026 A 
ATOM     18  C   LIG    1      204.906 114.422 143.010  0.00  0.00    -0.003 A 
ATOM     19  C   LIG    1      205.764 114.035 144.013  0.00  0.00    -0.007 A 
ATOM     20  C   LIG    1      207.428 110.479 145.450  0.00  0.00    +0.213 C 
ATOM     21  C   LIG    1      209.280 111.706 144.199  0.00  0.00    -0.025 C 
ENDROOT
BRANCH  17  22
ATOM     22  C   LIG    1      202.876 115.589 142.066  0.00  0.00    +0.146 C 
ATOM     23  C   LIG    1      201.590 114.908 142.017  0.00  0.00    +0.068 A 
ATOM     24  C   LIG    1      200.542 115.113 141.184  0.00  0.00    -0.005 A 
ATOM     25  C   LIG    1      199.532 114.241 141.549  0.00  0.00    +0.015 A 
ATOM     26  C   LIG    1      199.988 113.513 142.608  0.00  0.00    +0.081 A 
ATOM     27  C   LIG    1      199.249 112.530 143.250  0.00  0.00    +0.019 A 
ATOM     28  C   LIG    1      197.987 112.266 142.804  0.00  0.00    +0.002 A 
ATOM     29  C   LIG    1      197.506 112.988 141.737  0.00  0.00    +0.000 A 
ATOM     30  C   LIG    1      198.260 113.973 141.102  0.00  0.00    +0.001 A 
ATOM     31  C   LIG    1      200.500 116.135 140.052  0.00  0.00    +0.045 C 
ATOM     32  C   LIG    1      200.594 115.431 138.713  0.00  0.00    +0.077 C 
ATOM     33  N   LIG    1      201.801 115.881 137.976  0.00  0.00    -0.270 NA
ATOM     34  C   LIG    1      202.278 114.854 137.116  0.00  0.00    +0.103 C 
ATOM     35  C   LIG    1      203.530 114.175 137.463  0.00  0.00    +0.141 C 
ATOM     36  C   LIG    1      203.874 113.976 138.883  0.00  0.00    +0.033 C 
ATOM     37  C   LIG    1      202.738 114.726 139.794  0.00  0.00    +0.020 C 
ATOM     38  O   LIG    1      204.657 114.768 136.836  0.00  0.00    -0.224 OA
ATOM     39  C   LIG    1      202.884 116.108 138.913  0.00  0.00    +0.072 C 
ATOM     40  N   LIG    1      201.212 113.928 142.865  0.00  0.00    -0.249 NA
ATOM     41  C   LIG    1      203.746 115.260 140.901  0.00  0.00    +0.022 C 
BRANCH  35  42
ATOM     42  C   LIG    1      203.473 112.763 136.842  0.00  0.00    +0.032 C 
ATOM     43  C   LIG    1      204.749 112.762 135.978  0.00  0.00    +0.003 C 
ENDBRANCH  35  42
BRANCH  22  44
ATOM     44  C   LIG    1      202.647 117.015 142.332  0.00  0.00    +0.325 C 
ATOM     45  O   LIG    1      203.598 117.779 142.115  0.00  0.00    -0.249 OA
BRANCH  44  46
ATOM     46  O   LIG    1      201.504 117.620 142.795  0.00  0.00    -0.444 OA
ATOM     47  C   LIG    1      201.167 118.915 142.340  0.00  0.00    +0.256 C 
ENDBRANCH  44  46
ENDBRANCH  22  44
ENDBRANCH  17  22
BRANCH   1  49
ATOM     48  C   LIG    1      207.248 109.052 143.675  0.00  0.00    +0.001 C 
ATOM     49  C   LIG    1      208.141 109.823 143.303  0.00  0.00    +0.009 C 
ENDBRANCH   1  49
BRANCH  10  50
ATOM     50  C   LIG    1      205.220 111.597 145.810  0.00  0.00    +0.350 C 
ATOM     51  O   LIG    1      204.574 111.638 146.905  0.00  0.00    -0.247 OA
BRANCH  50  52
ATOM     52  O   LIG    1      204.274 111.407 144.825  0.00  0.00    -0.443 OA
ATOM     53  C   LIG    1      202.911 111.669 144.847  0.00  0.00    +0.256 C 
ENDBRANCH  50  52
ENDBRANCH  10  50
BRANCH  16  54
ATOM     54  O   LIG    1      202.293 116.327 144.780  0.00  0.00    -0.472 OA
ATOM     55  C   LIG    1      201.509 115.954 145.902  0.00  0.00    +0.252 C 
ENDBRANCH  16  54
BRANCH  20  56
ATOM     56  O   LIG    1      208.638 110.664 146.322  0.00  0.00    -0.449 OA
BRANCH  56  57
ATOM     57  C   LIG    1      209.220 109.619 146.952  0.00  0.00    +0.318 C 
ATOM     58  O   LIG    1      208.567 108.894 147.737  0.00  0.00    -0.250 OA
ATOM     59  C   LIG    1      210.663 109.286 146.738  0.00  0.00    +0.121 C 
ENDBRANCH  56  57
ENDBRANCH  20  56
TORSDOF 10
