MODEL 1
REMARK VINA RESULT:      -8.4      0.000      0.000
REMARK  Name = 
REMARK                            x       y       z     vdW  Elec       q    Type
REMARK                         _______ _______ _______ _____ _____    ______ ____
ROOT
ATOM      1  C   LIG    1      168.871 143.950 147.185  0.00  0.00    +0.035 A 
ATOM      2  C   LIG    1      169.791 144.924 146.870  0.00  0.00    +0.007 A 
ATOM      3  C   LIG    1      170.324 144.993 145.586  0.00  0.00    +0.051 A 
ATOM      4  C   LIG    1      169.965 144.110 144.590  0.00  0.00    +0.086 A 
ATOM      5  N   LIG    1      170.476 144.167 143.338  0.00  0.00    -0.224 NA
ATOM      6  C   LIG    1      171.367 145.132 143.077  0.00  0.00    +0.200 A 
ATOM      7  N   LIG    1      171.736 146.011 144.034  0.00  0.00    -0.207 NA
ATOM      8  C   LIG    1      169.036 143.138 144.935  0.00  0.00    +0.019 A 
ATOM      9  C   LIG    1      171.255 145.982 145.271  0.00  0.00    +0.155 A 
ATOM     10  C   LIG    1      168.502 143.059 146.202  0.00  0.00    +0.005 A 
ENDROOT
BRANCH   1  13
ATOM     11  C   LIG    1      167.727 144.400 150.557  0.00  0.00    +0.140 A 
ATOM     12  O   LIG    1      168.303 144.788 149.454  0.00  0.00    -0.456 OA
ATOM     13  C   LIG    1      168.323 143.891 148.534  0.00  0.00    +0.145 A 
ATOM     14  C   LIG    1      167.695 142.764 149.056  0.00  0.00    +0.040 A 
ATOM     15  C   LIG    1      167.320 143.091 150.335  0.00  0.00    +0.038 A 
BRANCH  11  16
ATOM     16  C   LIG    1      167.521 145.169 151.830  0.00  0.00    +0.153 C 
BRANCH  16  17
ATOM     17  N   LIG    1      167.269 146.571 151.518  0.00  0.00    -0.208 NA
BRANCH  17  18
ATOM     18  C   LIG    1      165.839 146.750 151.393  0.00  0.00    +0.114 C 
BRANCH  18  19
ATOM     19  C   LIG    1      165.426 147.117 149.995  0.00  0.00    +0.170 C 
BRANCH  19  21
ATOM     20  C   LIG    1      163.970 144.672 150.482  0.00  0.00    +0.176 C 
ATOM     21  S   LIG    1      164.327 145.914 149.289  0.00  0.00    -0.007 S 
ATOM     22  O   LIG    1      165.057 145.254 148.145  0.00  0.00    -0.173 OA
ATOM     23  O   LIG    1      163.049 146.553 148.808  0.00  0.00    -0.173 OA
ENDBRANCH  19  21
ENDBRANCH  18  19
ENDBRANCH  17  18
ENDBRANCH  16  17
ENDBRANCH  11  16
ENDBRANCH   1  13
BRANCH   9  24
ATOM     24  N   LIG    1      171.610 146.873 146.297  0.00  0.00    -0.194 NA
BRANCH  24  25
ATOM     25  C   LIG    1      171.204 148.207 146.284  0.00  0.00    +0.073 A 
ATOM     26  C   LIG    1      170.120 148.654 145.523  0.00  0.00    +0.031 A 
ATOM     27  C   LIG    1      169.770 149.970 145.554  0.00  0.00    +0.093 A 
ATOM     28 CL   LIG    1      168.410 150.596 144.603  0.00  0.00    -0.079 Cl
ATOM     29  C   LIG    1      170.453 150.898 146.317  0.00  0.00    +0.150 A 
ATOM     30  C   LIG    1      171.523 150.469 147.070  0.00  0.00    +0.039 A 
ATOM     31  C   LIG    1      171.873 149.143 147.038  0.00  0.00    +0.020 A 
BRANCH  29  32
ATOM     32  O   LIG    1      170.058 152.248 146.320  0.00  0.00    -0.470 OA
BRANCH  32  33
ATOM     33  C   LIG    1      169.998 152.908 147.579  0.00  0.00    +0.232 C 
BRANCH  33  34
ATOM     34  C   LIG    1      168.680 152.588 148.174  0.00  0.00    +0.023 A 
ATOM     35  C   LIG    1      167.492 152.935 147.565  0.00  0.00    +0.029 A 
ATOM     36  C   LIG    1      166.281 152.602 148.179  0.00  0.00    +0.140 A 
ATOM     37  F   LIG    1      165.084 152.920 147.619  0.00  0.00    -0.204 F 
ATOM     38  C   LIG    1      166.267 151.935 149.381  0.00  0.00    +0.030 A 
ATOM     39  C   LIG    1      167.439 151.590 149.985  0.00  0.00    +0.002 A 
ATOM     40  C   LIG    1      168.636 151.921 149.375  0.00  0.00    -0.001 A 
ENDBRANCH  33  34
ENDBRANCH  32  33
ENDBRANCH  29  32
ENDBRANCH  24  25
ENDBRANCH   9  24
TORSDOF 11
ENDMDL
MODEL 2
REMARK VINA RESULT:      -7.8     36.250     39.884
REMARK  Name = 
REMARK                            x       y       z     vdW  Elec       q    Type
REMARK                         _______ _______ _______ _____ _____    ______ ____
ROOT
ATOM      1  C   LIG    1      195.188 123.046 140.264  0.00  0.00    +0.035 A 
ATOM      2  C   LIG    1      195.603 121.759 140.515  0.00  0.00    +0.007 A 
ATOM      3  C   LIG    1      194.708 120.699 140.392  0.00  0.00    +0.051 A 
ATOM      4  C   LIG    1      193.394 120.883 140.020  0.00  0.00    +0.086 A 
ATOM      5  N   LIG    1      192.515 119.861 139.897  0.00  0.00    -0.224 NA
ATOM      6  C   LIG    1      192.963 118.626 140.151  0.00  0.00    +0.200 A 
ATOM      7  N   LIG    1      194.247 118.417 140.517  0.00  0.00    -0.207 NA
ATOM      8  C   LIG    1      193.002 122.192 139.772  0.00  0.00    +0.019 A 
ATOM      9  C   LIG    1      195.133 119.396 140.648  0.00  0.00    +0.155 A 
ATOM     10  C   LIG    1      193.877 123.248 139.891  0.00  0.00    +0.005 A 
ENDROOT
BRANCH   1  13
ATOM     11  C   LIG    1      197.109 125.984 141.010  0.00  0.00    +0.140 A 
ATOM     12  O   LIG    1      196.079 125.196 141.136  0.00  0.00    -0.456 OA
ATOM     13  C   LIG    1      196.136 124.144 140.398  0.00  0.00    +0.145 A 
ATOM     14  C   LIG    1      197.332 124.215 139.688  0.00  0.00    +0.040 A 
ATOM     15  C   LIG    1      197.943 125.380 140.079  0.00  0.00    +0.038 A 
BRANCH  11  16
ATOM     16  C   LIG    1      197.385 127.286 141.705  0.00  0.00    +0.153 C 
BRANCH  16  17
ATOM     17  N   LIG    1      196.367 128.263 141.333  0.00  0.00    -0.208 NA
BRANCH  17  18
ATOM     18  C   LIG    1      196.689 128.763 140.015  0.00  0.00    +0.114 C 
BRANCH  18  19
ATOM     19  C   LIG    1      195.472 129.226 139.264  0.00  0.00    +0.170 C 
BRANCH  19  21
ATOM     20  C   LIG    1      193.780 126.887 139.229  0.00  0.00    +0.176 C 
ATOM     21  S   LIG    1      194.789 127.940 138.247  0.00  0.00    -0.007 S 
ATOM     22  O   LIG    1      195.943 127.117 137.729  0.00  0.00    -0.173 OA
ATOM     23  O   LIG    1      193.987 128.510 137.105  0.00  0.00    -0.173 OA
ENDBRANCH  19  21
ENDBRANCH  18  19
ENDBRANCH  17  18
ENDBRANCH  16  17
ENDBRANCH  11  16
ENDBRANCH   1  13
BRANCH   9  24
ATOM     24  N   LIG    1      196.475 119.226 141.027  0.00  0.00    -0.194 NA
BRANCH  24  25
ATOM     25  C   LIG    1      196.829 118.858 142.325  0.00  0.00    +0.073 A 
ATOM     26  C   LIG    1      196.271 119.463 143.455  0.00  0.00    +0.031 A 
ATOM     27  C   LIG    1      196.656 119.058 144.697  0.00  0.00    +0.093 A 
ATOM     28 CL   LIG    1      195.990 119.795 146.167  0.00  0.00    -0.079 Cl
ATOM     29  C   LIG    1      197.590 118.059 144.892  0.00  0.00    +0.150 A 
ATOM     30  C   LIG    1      198.147 117.455 143.786  0.00  0.00    +0.039 A 
ATOM     31  C   LIG    1      197.757 117.864 142.536  0.00  0.00    +0.020 A 
BRANCH  29  32
ATOM     32  O   LIG    1      197.960 117.670 146.192  0.00  0.00    -0.470 OA
BRANCH  32  33
ATOM     33  C   LIG    1      199.162 118.218 146.721  0.00  0.00    +0.232 C 
BRANCH  33  34
ATOM     34  C   LIG    1      200.239 117.238 146.456  0.00  0.00    +0.023 A 
ATOM     35  C   LIG    1      201.402 117.579 145.798  0.00  0.00    +0.029 A 
ATOM     36  C   LIG    1      202.382 116.605 145.582  0.00  0.00    +0.140 A 
ATOM     37  F   LIG    1      203.545 116.892 144.940  0.00  0.00    -0.204 F 
ATOM     38  C   LIG    1      202.193 115.316 146.018  0.00  0.00    +0.030 A 
ATOM     39  C   LIG    1      201.046 114.975 146.669  0.00  0.00    +0.002 A 
ATOM     40  C   LIG    1      200.078 115.941 146.882  0.00  0.00    -0.001 A 
ENDBRANCH  33  34
ENDBRANCH  32  33
ENDBRANCH  29  32
ENDBRANCH  24  25
ENDBRANCH   9  24
TORSDOF 11
ENDMDL
MODEL 3
REMARK VINA RESULT:      -7.6      2.593      3.268
REMARK  Name = 
REMARK                            x       y       z     vdW  Elec       q    Type
REMARK                         _______ _______ _______ _____ _____    ______ ____
ROOT
ATOM      1  C   LIG    1      168.222 143.740 146.931  0.00  0.00    +0.035 A 
ATOM      2  C   LIG    1      169.374 144.473 146.764  0.00  0.00    +0.007 A 
ATOM      3  C   LIG    1      169.999 144.519 145.521  0.00  0.00    +0.051 A 
ATOM      4  C   LIG    1      169.505 143.850 144.422  0.00  0.00    +0.086 A 
ATOM      5  N   LIG    1      170.103 143.888 143.208  0.00  0.00    -0.224 NA
ATOM      6  C   LIG    1      171.222 144.613 143.092  0.00  0.00    +0.200 A 
ATOM      7  N   LIG    1      171.728 145.280 144.153  0.00  0.00    -0.207 NA
ATOM      8  C   LIG    1      168.341 143.119 144.618  0.00  0.00    +0.019 A 
ATOM      9  C   LIG    1      171.167 145.263 145.356  0.00  0.00    +0.155 A 
ATOM     10  C   LIG    1      167.715 143.065 145.843  0.00  0.00    +0.005 A 
ENDROOT
BRANCH   1  13
ATOM     11  C   LIG    1      167.092 144.053 150.323  0.00  0.00    +0.140 A 
ATOM     12  O   LIG    1      167.885 144.320 149.324  0.00  0.00    -0.456 OA
ATOM     13  C   LIG    1      167.580 143.701 148.239  0.00  0.00    +0.145 A 
ATOM     14  C   LIG    1      166.458 142.926 148.519  0.00  0.00    +0.040 A 
ATOM     15  C   LIG    1      166.154 143.153 149.838  0.00  0.00    +0.038 A 
BRANCH  11  16
ATOM     16  C   LIG    1      167.140 144.583 151.727  0.00  0.00    +0.153 C 
BRANCH  16  17
ATOM     17  N   LIG    1      166.390 143.697 152.610  0.00  0.00    -0.208 NA
BRANCH  17  18
ATOM     18  C   LIG    1      166.834 143.936 153.965  0.00  0.00    +0.114 C 
BRANCH  18  19
ATOM     19  C   LIG    1      168.099 144.746 154.022  0.00  0.00    +0.170 C 
BRANCH  19  21
ATOM     20  C   LIG    1      170.102 145.872 155.770  0.00  0.00    +0.176 C 
ATOM     21  S   LIG    1      168.424 145.358 155.657  0.00  0.00    -0.007 S 
ATOM     22  O   LIG    1      168.232 144.207 156.614  0.00  0.00    -0.173 OA
ATOM     23  O   LIG    1      167.507 146.502 156.008  0.00  0.00    -0.173 OA
ENDBRANCH  19  21
ENDBRANCH  18  19
ENDBRANCH  17  18
ENDBRANCH  16  17
ENDBRANCH  11  16
ENDBRANCH   1  13
BRANCH   9  24
ATOM     24  N   LIG    1      171.658 145.938 146.486  0.00  0.00    -0.194 NA
BRANCH  24  25
ATOM     25  C   LIG    1      171.360 147.279 146.725  0.00  0.00    +0.073 A 
ATOM     26  C   LIG    1      171.314 148.232 145.704  0.00  0.00    +0.031 A 
ATOM     27  C   LIG    1      171.015 149.527 146.001  0.00  0.00    +0.093 A 
ATOM     28 CL   LIG    1      170.951 150.781 144.749  0.00  0.00    -0.079 Cl
ATOM     29  C   LIG    1      170.753 149.947 147.291  0.00  0.00    +0.150 A 
ATOM     30  C   LIG    1      170.796 149.017 148.306  0.00  0.00    +0.039 A 
ATOM     31  C   LIG    1      171.096 147.714 148.004  0.00  0.00    +0.020 A 
BRANCH  29  32
ATOM     32  O   LIG    1      170.448 151.295 147.555  0.00  0.00    -0.470 OA
BRANCH  32  33
ATOM     33  C   LIG    1      170.186 151.653 148.907  0.00  0.00    +0.232 C 
BRANCH  33  34
ATOM     34  C   LIG    1      169.042 152.593 148.894  0.00  0.00    +0.023 A 
ATOM     35  C   LIG    1      168.773 153.442 149.947  0.00  0.00    +0.029 A 
ATOM     36  C   LIG    1      167.678 154.308 149.870  0.00  0.00    +0.140 A 
ATOM     37  F   LIG    1      167.371 155.164 150.880  0.00  0.00    -0.204 F 
ATOM     38  C   LIG    1      166.871 154.317 148.757  0.00  0.00    +0.030 A 
ATOM     39  C   LIG    1      167.135 153.481 147.715  0.00  0.00    +0.002 A 
ATOM     40  C   LIG    1      168.220 152.625 147.793  0.00  0.00    -0.001 A 
ENDBRANCH  33  34
ENDBRANCH  32  33
ENDBRANCH  29  32
ENDBRANCH  24  25
ENDBRANCH   9  24
TORSDOF 11
ENDMDL
MODEL 4
REMARK VINA RESULT:      -7.5     38.839     42.051
REMARK  Name = 
REMARK                            x       y       z     vdW  Elec       q    Type
REMARK                         _______ _______ _______ _____ _____    ______ ____
ROOT
ATOM      1  C   LIG    1      198.912 118.304 146.993  0.00  0.00    +0.035 A 
ATOM      2  C   LIG    1      197.742 118.322 146.270  0.00  0.00    +0.007 A 
ATOM      3  C   LIG    1      196.661 119.081 146.708  0.00  0.00    +0.051 A 
ATOM      4  C   LIG    1      196.708 119.836 147.860  0.00  0.00    +0.086 A 
ATOM      5  N   LIG    1      195.664 120.579 148.297  0.00  0.00    -0.224 NA
ATOM      6  C   LIG    1      194.546 120.566 147.561  0.00  0.00    +0.200 A 
ATOM      7  N   LIG    1      194.472 119.836 146.426  0.00  0.00    -0.207 NA
ATOM      8  C   LIG    1      197.901 119.800 148.571  0.00  0.00    +0.019 A 
ATOM      9  C   LIG    1      195.477 119.097 145.972  0.00  0.00    +0.155 A 
ATOM     10  C   LIG    1      198.977 119.052 148.148  0.00  0.00    +0.005 A 
ENDROOT
BRANCH   1  13
ATOM     11  C   LIG    1      201.521 115.938 146.300  0.00  0.00    +0.140 A 
ATOM     12  O   LIG    1      200.490 116.384 146.961  0.00  0.00    -0.456 OA
ATOM     13  C   LIG    1      200.035 117.504 146.521  0.00  0.00    +0.145 A 
ATOM     14  C   LIG    1      200.836 117.868 145.442  0.00  0.00    +0.040 A 
ATOM     15  C   LIG    1      201.773 116.875 145.307  0.00  0.00    +0.038 A 
BRANCH  11  16
ATOM     16  C   LIG    1      202.307 114.679 146.525  0.00  0.00    +0.153 C 
BRANCH  16  17
ATOM     17  N   LIG    1      202.252 113.849 145.327  0.00  0.00    -0.208 NA
BRANCH  17  18
ATOM     18  C   LIG    1      202.635 112.504 145.697  0.00  0.00    +0.114 C 
BRANCH  18  19
ATOM     19  C   LIG    1      203.290 112.444 147.049  0.00  0.00    +0.170 C 
BRANCH  19  21
ATOM     20  C   LIG    1      205.463 111.794 145.263  0.00  0.00    +0.176 C 
ATOM     21  S   LIG    1      205.041 112.174 146.927  0.00  0.00    -0.007 S 
ATOM     22  O   LIG    1      205.368 110.965 147.771  0.00  0.00    -0.173 OA
ATOM     23  O   LIG    1      205.818 113.377 147.398  0.00  0.00    -0.173 OA
ENDBRANCH  19  21
ENDBRANCH  18  19
ENDBRANCH  17  18
ENDBRANCH  16  17
ENDBRANCH  11  16
ENDBRANCH   1  13
BRANCH   9  24
ATOM     24  N   LIG    1      195.445 118.322 144.800  0.00  0.00    -0.194 NA
BRANCH  24  25
ATOM     25  C   LIG    1      195.409 118.907 143.535  0.00  0.00    +0.073 A 
ATOM     26  C   LIG    1      196.504 119.584 142.990  0.00  0.00    +0.031 A 
ATOM     27  C   LIG    1      196.408 120.133 141.747  0.00  0.00    +0.093 A 
ATOM     28 CL   LIG    1      197.760 121.012 141.008  0.00  0.00    -0.079 Cl
ATOM     29  C   LIG    1      195.256 120.048 140.989  0.00  0.00    +0.150 A 
ATOM     30  C   LIG    1      194.171 119.382 141.516  0.00  0.00    +0.039 A 
ATOM     31  C   LIG    1      194.270 118.830 142.767  0.00  0.00    +0.020 A 
BRANCH  29  32
ATOM     32  O   LIG    1      195.199 120.628 139.709  0.00  0.00    -0.470 OA
BRANCH  32  33
ATOM     33  C   LIG    1      194.057 121.419 139.401  0.00  0.00    +0.232 C 
BRANCH  33  34
ATOM     34  C   LIG    1      194.481 122.837 139.461  0.00  0.00    +0.023 A 
ATOM     35  C   LIG    1      193.669 123.829 139.968  0.00  0.00    +0.029 A 
ATOM     36  C   LIG    1      194.131 125.149 139.998  0.00  0.00    +0.140 A 
ATOM     37  F   LIG    1      193.371 126.162 140.489  0.00  0.00    -0.204 F 
ATOM     38  C   LIG    1      195.384 125.461 139.526  0.00  0.00    +0.030 A 
ATOM     39  C   LIG    1      196.189 124.483 139.025  0.00  0.00    +0.002 A 
ATOM     40  C   LIG    1      195.729 123.178 138.996  0.00  0.00    -0.001 A 
ENDBRANCH  33  34
ENDBRANCH  32  33
ENDBRANCH  29  32
ENDBRANCH  24  25
ENDBRANCH   9  24
TORSDOF 11
ENDMDL
MODEL 5
REMARK VINA RESULT:      -7.5     37.867     41.132
REMARK  Name = 
REMARK                            x       y       z     vdW  Elec       q    Type
REMARK                         _______ _______ _______ _____ _____    ______ ____
ROOT
ATOM      1  C   LIG    1      198.435 118.045 146.919  0.00  0.00    +0.035 A 
ATOM      2  C   LIG    1      197.255 118.164 146.222  0.00  0.00    +0.007 A 
ATOM      3  C   LIG    1      196.290 119.081 146.631  0.00  0.00    +0.051 A 
ATOM      4  C   LIG    1      196.466 119.896 147.728  0.00  0.00    +0.086 A 
ATOM      5  N   LIG    1      195.536 120.792 148.136  0.00  0.00    -0.224 NA
ATOM      6  C   LIG    1      194.404 120.873 147.427  0.00  0.00    +0.200 A 
ATOM      7  N   LIG    1      194.205 120.086 146.346  0.00  0.00    -0.207 NA
ATOM      8  C   LIG    1      197.666 119.756 148.414  0.00  0.00    +0.019 A 
ATOM      9  C   LIG    1      195.096 119.199 145.921  0.00  0.00    +0.155 A 
ATOM     10  C   LIG    1      198.626 118.852 148.019  0.00  0.00    +0.005 A 
ENDROOT
BRANCH   1  13
ATOM     11  C   LIG    1      200.616 115.722 145.269  0.00  0.00    +0.140 A 
ATOM     12  O   LIG    1      199.621 116.561 145.317  0.00  0.00    -0.456 OA
ATOM     13  C   LIG    1      199.434 117.081 146.478  0.00  0.00    +0.145 A 
ATOM     14  C   LIG    1      200.403 116.543 147.321  0.00  0.00    +0.040 A 
ATOM     15  C   LIG    1      201.148 115.685 146.551  0.00  0.00    +0.038 A 
BRANCH  11  16
ATOM     16  C   LIG    1      201.123 114.933 144.096  0.00  0.00    +0.153 C 
BRANCH  16  17
ATOM     17  N   LIG    1      200.627 115.524 142.859  0.00  0.00    -0.208 NA
BRANCH  17  18
ATOM     18  C   LIG    1      200.023 114.471 142.072  0.00  0.00    +0.114 C 
BRANCH  18  19
ATOM     19  C   LIG    1      198.682 114.053 142.604  0.00  0.00    +0.170 C 
BRANCH  19  21
ATOM     20  C   LIG    1      196.421 115.396 141.412  0.00  0.00    +0.176 C 
ATOM     21  S   LIG    1      197.453 113.975 141.323  0.00  0.00    -0.007 S 
ATOM     22  O   LIG    1      196.594 112.765 141.599  0.00  0.00    -0.173 OA
ATOM     23  O   LIG    1      198.087 113.879 139.959  0.00  0.00    -0.173 OA
ENDBRANCH  19  21
ENDBRANCH  18  19
ENDBRANCH  17  18
ENDBRANCH  16  17
ENDBRANCH  11  16
ENDBRANCH   1  13
BRANCH   9  24
ATOM     24  N   LIG    1      194.932 118.360 144.806  0.00  0.00    -0.194 NA
BRANCH  24  25
ATOM     25  C   LIG    1      194.876 118.868 143.509  0.00  0.00    +0.073 A 
ATOM     26  C   LIG    1      196.024 119.166 142.769  0.00  0.00    +0.031 A 
ATOM     27  C   LIG    1      195.904 119.658 141.504  0.00  0.00    +0.093 A 
ATOM     28 CL   LIG    1      197.324 120.062 140.521  0.00  0.00    -0.079 Cl
ATOM     29  C   LIG    1      194.675 119.880 140.912  0.00  0.00    +0.150 A 
ATOM     30  C   LIG    1      193.537 119.591 141.632  0.00  0.00    +0.039 A 
ATOM     31  C   LIG    1      193.661 119.095 142.904  0.00  0.00    +0.020 A 
BRANCH  29  32
ATOM     32  O   LIG    1      194.596 120.390 139.603  0.00  0.00    -0.470 OA
BRANCH  32  33
ATOM     33  C   LIG    1      194.056 121.697 139.443  0.00  0.00    +0.232 C 
BRANCH  33  34
ATOM     34  C   LIG    1      195.199 122.638 139.411  0.00  0.00    +0.023 A 
ATOM     35  C   LIG    1      195.485 123.487 140.459  0.00  0.00    +0.029 A 
ATOM     36  C   LIG    1      196.581 124.351 140.366  0.00  0.00    +0.140 A 
ATOM     37  F   LIG    1      196.906 125.205 141.372  0.00  0.00    -0.204 F 
ATOM     38  C   LIG    1      197.371 124.358 139.241  0.00  0.00    +0.030 A 
ATOM     39  C   LIG    1      197.093 123.520 138.204  0.00  0.00    +0.002 A 
ATOM     40  C   LIG    1      196.007 122.666 138.299  0.00  0.00    -0.001 A 
ENDBRANCH  33  34
ENDBRANCH  32  33
ENDBRANCH  29  32
ENDBRANCH  24  25
ENDBRANCH   9  24
TORSDOF 11
ENDMDL
MODEL 6
REMARK VINA RESULT:      -7.4      3.390      5.320
REMARK  Name = 
REMARK                            x       y       z     vdW  Elec       q    Type
REMARK                         _______ _______ _______ _____ _____    ______ ____
ROOT
ATOM      1  C   LIG    1      169.136 143.191 152.294  0.00  0.00    +0.035 A 
ATOM      2  C   LIG    1      169.484 142.756 151.036  0.00  0.00    +0.007 A 
ATOM      3  C   LIG    1      170.767 142.274 150.793  0.00  0.00    +0.051 A 
ATOM      4  C   LIG    1      171.730 142.210 151.777  0.00  0.00    +0.086 A 
ATOM      5  N   LIG    1      172.981 141.744 151.553  0.00  0.00    -0.224 NA
ATOM      6  C   LIG    1      173.274 141.330 150.314  0.00  0.00    +0.200 A 
ATOM      7  N   LIG    1      172.349 141.381 149.330  0.00  0.00    -0.207 NA
ATOM      8  C   LIG    1      171.352 142.656 153.037  0.00  0.00    +0.019 A 
ATOM      9  C   LIG    1      171.115 141.833 149.517  0.00  0.00    +0.155 A 
ATOM     10  C   LIG    1      170.087 143.136 153.289  0.00  0.00    +0.005 A 
ENDROOT
BRANCH   1  13
ATOM     11  C   LIG    1      165.825 144.575 152.266  0.00  0.00    +0.140 A 
ATOM     12  O   LIG    1      166.957 144.238 151.716  0.00  0.00    -0.456 OA
ATOM     13  C   LIG    1      167.789 143.693 152.532  0.00  0.00    +0.145 A 
ATOM     14  C   LIG    1      167.165 143.651 153.775  0.00  0.00    +0.040 A 
ATOM     15  C   LIG    1      165.923 144.210 153.601  0.00  0.00    +0.038 A 
BRANCH  11  16
ATOM     16  C   LIG    1      164.631 145.227 151.630  0.00  0.00    +0.153 C 
BRANCH  16  17
ATOM     17  N   LIG    1      164.952 145.602 150.258  0.00  0.00    -0.208 NA
BRANCH  17  18
ATOM     18  C   LIG    1      164.717 144.451 149.414  0.00  0.00    +0.114 C 
BRANCH  18  19
ATOM     19  C   LIG    1      164.275 144.834 148.030  0.00  0.00    +0.170 C 
BRANCH  19  21
ATOM     20  C   LIG    1      165.537 144.497 145.455  0.00  0.00    +0.176 C 
ATOM     21  S   LIG    1      164.802 143.653 146.812  0.00  0.00    -0.007 S 
ATOM     22  O   LIG    1      163.567 142.952 146.302  0.00  0.00    -0.173 OA
ATOM     23  O   LIG    1      165.776 142.661 147.394  0.00  0.00    -0.173 OA
ENDBRANCH  19  21
ENDBRANCH  18  19
ENDBRANCH  17  18
ENDBRANCH  16  17
ENDBRANCH  11  16
ENDBRANCH   1  13
BRANCH   9  24
ATOM     24  N   LIG    1      170.123 141.905 148.525  0.00  0.00    -0.194 NA
BRANCH  24  25
ATOM     25  C   LIG    1      169.984 143.027 147.707  0.00  0.00    +0.073 A 
ATOM     26  C   LIG    1      170.864 143.304 146.657  0.00  0.00    +0.031 A 
ATOM     27  C   LIG    1      170.675 144.414 145.892  0.00  0.00    +0.093 A 
ATOM     28 CL   LIG    1      171.763 144.822 144.552  0.00  0.00    -0.079 Cl
ATOM     29  C   LIG    1      169.633 145.295 146.115  0.00  0.00    +0.150 A 
ATOM     30  C   LIG    1      168.760 145.033 147.147  0.00  0.00    +0.039 A 
ATOM     31  C   LIG    1      168.952 143.913 147.915  0.00  0.00    +0.020 A 
BRANCH  29  32
ATOM     32  O   LIG    1      169.473 146.431 145.301  0.00  0.00    -0.470 OA
BRANCH  32  33
ATOM     33  C   LIG    1      170.269 147.571 145.607  0.00  0.00    +0.232 C 
BRANCH  33  34
ATOM     34  C   LIG    1      169.338 148.681 145.912  0.00  0.00    +0.023 A 
ATOM     35  C   LIG    1      168.786 149.473 144.927  0.00  0.00    +0.029 A 
ATOM     36  C   LIG    1      167.912 150.505 145.282  0.00  0.00    +0.140 A 
ATOM     37  F   LIG    1      167.341 151.312 144.350  0.00  0.00    -0.204 F 
ATOM     38  C   LIG    1      167.601 150.733 146.602  0.00  0.00    +0.030 A 
ATOM     39  C   LIG    1      168.143 149.952 147.577  0.00  0.00    +0.002 A 
ATOM     40  C   LIG    1      169.008 148.932 147.223  0.00  0.00    -0.001 A 
ENDBRANCH  33  34
ENDBRANCH  32  33
ENDBRANCH  29  32
ENDBRANCH  24  25
ENDBRANCH   9  24
TORSDOF 11
ENDMDL
MODEL 7
REMARK VINA RESULT:      -7.4     39.357     42.543
REMARK  Name = 
REMARK                            x       y       z     vdW  Elec       q    Type
REMARK                         _______ _______ _______ _____ _____    ______ ____
ROOT
ATOM      1  C   LIG    1      199.412 116.995 146.782  0.00  0.00    +0.035 A 
ATOM      2  C   LIG    1      198.220 117.423 146.244  0.00  0.00    +0.007 A 
ATOM      3  C   LIG    1      197.563 118.523 146.787  0.00  0.00    +0.051 A 
ATOM      4  C   LIG    1      198.062 119.224 147.864  0.00  0.00    +0.086 A 
ATOM      5  N   LIG    1      197.433 120.295 148.401  0.00  0.00    -0.224 NA
ATOM      6  C   LIG    1      196.276 120.675 147.844  0.00  0.00    +0.200 A 
ATOM      7  N   LIG    1      195.763 120.007 146.787  0.00  0.00    -0.207 NA
ATOM      8  C   LIG    1      199.267 118.771 148.386  0.00  0.00    +0.019 A 
ATOM      9  C   LIG    1      196.355 118.953 146.239  0.00  0.00    +0.155 A 
ATOM     10  C   LIG    1      199.925 117.683 147.859  0.00  0.00    +0.005 A 
ENDROOT
BRANCH   1  13
ATOM     11  C   LIG    1      201.229 114.014 145.952  0.00  0.00    +0.140 A 
ATOM     12  O   LIG    1      200.751 114.901 146.777  0.00  0.00    -0.456 OA
ATOM     13  C   LIG    1      200.087 115.841 146.203  0.00  0.00    +0.145 A 
ATOM     14  C   LIG    1      200.110 115.573 144.837  0.00  0.00    +0.040 A 
ATOM     15  C   LIG    1      200.834 114.417 144.684  0.00  0.00    +0.038 A 
BRANCH  11  16
ATOM     16  C   LIG    1      202.045 112.791 146.259  0.00  0.00    +0.153 C 
BRANCH  16  17
ATOM     17  N   LIG    1      203.222 113.171 147.032  0.00  0.00    -0.208 NA
BRANCH  17  18
ATOM     18  C   LIG    1      204.369 113.125 146.152  0.00  0.00    +0.114 C 
BRANCH  18  19
ATOM     19  C   LIG    1      205.240 114.344 146.277  0.00  0.00    +0.170 C 
BRANCH  19  21
ATOM     20  C   LIG    1      204.357 114.840 143.573  0.00  0.00    +0.176 C 
ATOM     21  S   LIG    1      204.803 115.597 145.097  0.00  0.00    -0.007 S 
ATOM     22  O   LIG    1      206.037 116.431 144.851  0.00  0.00    -0.173 OA
ATOM     23  O   LIG    1      203.671 116.456 145.600  0.00  0.00    -0.173 OA
ENDBRANCH  19  21
ENDBRANCH  18  19
ENDBRANCH  17  18
ENDBRANCH  16  17
ENDBRANCH  11  16
ENDBRANCH   1  13
BRANCH   9  24
ATOM     24  N   LIG    1      195.858 118.228 145.143  0.00  0.00    -0.194 NA
BRANCH  24  25
ATOM     25  C   LIG    1      195.726 118.806 143.881  0.00  0.00    +0.073 A 
ATOM     26  C   LIG    1      196.794 119.419 143.220  0.00  0.00    +0.031 A 
ATOM     27  C   LIG    1      196.602 119.964 141.986  0.00  0.00    +0.093 A 
ATOM     28 CL   LIG    1      197.917 120.762 141.104  0.00  0.00    -0.079 Cl
ATOM     29  C   LIG    1      195.376 119.938 141.350  0.00  0.00    +0.150 A 
ATOM     30  C   LIG    1      194.315 119.337 141.992  0.00  0.00    +0.039 A 
ATOM     31  C   LIG    1      194.512 118.788 143.233  0.00  0.00    +0.020 A 
BRANCH  29  32
ATOM     32  O   LIG    1      195.221 120.513 140.076  0.00  0.00    -0.470 OA
BRANCH  32  33
ATOM     33  C   LIG    1      194.497 121.735 139.995  0.00  0.00    +0.232 C 
BRANCH  33  34
ATOM     34  C   LIG    1      195.491 122.818 139.817  0.00  0.00    +0.023 A 
ATOM     35  C   LIG    1      196.141 123.033 138.620  0.00  0.00    +0.029 A 
ATOM     36  C   LIG    1      197.069 124.075 138.518  0.00  0.00    +0.140 A 
ATOM     37  F   LIG    1      197.734 124.329 137.360  0.00  0.00    -0.204 F 
ATOM     38  C   LIG    1      197.335 124.881 139.599  0.00  0.00    +0.030 A 
ATOM     39  C   LIG    1      196.694 124.672 140.782  0.00  0.00    +0.002 A 
ATOM     40  C   LIG    1      195.777 123.640 140.881  0.00  0.00    -0.001 A 
ENDBRANCH  33  34
ENDBRANCH  32  33
ENDBRANCH  29  32
ENDBRANCH  24  25
ENDBRANCH   9  24
TORSDOF 11
ENDMDL
MODEL 8
REMARK VINA RESULT:      -7.2     49.193     53.313
REMARK  Name = 
REMARK                            x       y       z     vdW  Elec       q    Type
REMARK                         _______ _______ _______ _____ _____    ______ ____
ROOT
ATOM      1  C   LIG    1      162.191  99.655 175.188  0.00  0.00    +0.035 A 
ATOM      2  C   LIG    1      163.141 100.537 174.727  0.00  0.00    +0.007 A 
ATOM      3  C   LIG    1      164.125 101.017 175.587  0.00  0.00    +0.051 A 
ATOM      4  C   LIG    1      164.194 100.642 176.912  0.00  0.00    +0.086 A 
ATOM      5  N   LIG    1      165.145 101.102 177.758  0.00  0.00    -0.224 NA
ATOM      6  C   LIG    1      166.049 101.957 177.265  0.00  0.00    +0.200 A 
ATOM      7  N   LIG    1      166.006 102.341 175.970  0.00  0.00    -0.207 NA
ATOM      8  C   LIG    1      163.222  99.751 177.350  0.00  0.00    +0.019 A 
ATOM      9  C   LIG    1      165.087 101.909 175.116  0.00  0.00    +0.155 A 
ATOM     10  C   LIG    1      162.244  99.270 176.509  0.00  0.00    +0.005 A 
ENDROOT
BRANCH   1  13
ATOM     11  C   LIG    1      159.418  98.176 173.455  0.00  0.00    +0.140 A 
ATOM     12  O   LIG    1      160.131  98.440 174.513  0.00  0.00    -0.456 OA
ATOM     13  C   LIG    1      161.168  99.162 174.275  0.00  0.00    +0.145 A 
ATOM     14  C   LIG    1      161.171  99.424 172.908  0.00  0.00    +0.040 A 
ATOM     15  C   LIG    1      160.062  98.798 172.394  0.00  0.00    +0.038 A 
BRANCH  11  16
ATOM     16  C   LIG    1      158.155  97.371 173.351  0.00  0.00    +0.153 C 
BRANCH  16  17
ATOM     17  N   LIG    1      158.177  96.585 172.123  0.00  0.00    -0.208 NA
BRANCH  17  18
ATOM     18  C   LIG    1      157.826  95.222 172.458  0.00  0.00    +0.114 C 
BRANCH  18  19
ATOM     19  C   LIG    1      157.314  94.452 171.274  0.00  0.00    +0.170 C 
BRANCH  19  21
ATOM     20  C   LIG    1      156.977  91.753 170.305  0.00  0.00    +0.176 C 
ATOM     21  S   LIG    1      158.065  92.848 171.147  0.00  0.00    -0.007 S 
ATOM     22  O   LIG    1      158.247  92.325 172.551  0.00  0.00    -0.173 OA
ATOM     23  O   LIG    1      159.389  92.917 170.429  0.00  0.00    -0.173 OA
ENDBRANCH  19  21
ENDBRANCH  18  19
ENDBRANCH  17  18
ENDBRANCH  16  17
ENDBRANCH  11  16
ENDBRANCH   1  13
BRANCH   9  24
ATOM     24  N   LIG    1      165.002 102.283 173.764  0.00  0.00    -0.194 NA
BRANCH  24  25
ATOM     25  C   LIG    1      164.476 103.515 173.376  0.00  0.00    +0.073 A 
ATOM     26  C   LIG    1      165.013 104.263 172.325  0.00  0.00    +0.031 A 
ATOM     27  C   LIG    1      164.454 105.459 171.991  0.00  0.00    +0.093 A 
ATOM     28 CL   LIG    1      165.097 106.456 170.673  0.00  0.00    -0.079 Cl
ATOM     29  C   LIG    1      163.359 105.973 172.660  0.00  0.00    +0.150 A 
ATOM     30  C   LIG    1      162.821 105.245 173.697  0.00  0.00    +0.039 A 
ATOM     31  C   LIG    1      163.386 104.041 174.031  0.00  0.00    +0.020 A 
BRANCH  29  32
ATOM     32  O   LIG    1      162.811 107.213 172.283  0.00  0.00    -0.470 OA
BRANCH  32  33
ATOM     33  C   LIG    1      161.690 107.683 173.023  0.00  0.00    +0.232 C 
BRANCH  33  34
ATOM     34  C   LIG    1      162.209 108.614 174.052  0.00  0.00    +0.023 A 
ATOM     35  C   LIG    1      163.527 108.607 174.455  0.00  0.00    +0.029 A 
ATOM     36  C   LIG    1      163.954 109.514 175.431  0.00  0.00    +0.140 A 
ATOM     37  F   LIG    1      165.242 109.548 175.860  0.00  0.00    -0.204 F 
ATOM     38  C   LIG    1      163.070 110.407 175.987  0.00  0.00    +0.030 A 
ATOM     39  C   LIG    1      161.767 110.417 175.591  0.00  0.00    +0.002 A 
ATOM     40  C   LIG    1      161.347 109.518 174.626  0.00  0.00    -0.001 A 
ENDBRANCH  33  34
ENDBRANCH  32  33
ENDBRANCH  29  32
ENDBRANCH  24  25
ENDBRANCH   9  24
TORSDOF 11
ENDMDL
MODEL 9
REMARK VINA RESULT:      -7.1     72.272     74.711
REMARK  Name = 
REMARK                            x       y       z     vdW  Elec       q    Type
REMARK                         _______ _______ _______ _____ _____    ______ ____
ROOT
ATOM      1  C   LIG    1      198.798  83.219 166.324  0.00  0.00    +0.035 A 
ATOM      2  C   LIG    1      198.109  83.239 165.134  0.00  0.00    +0.007 A 
ATOM      3  C   LIG    1      198.800  83.208 163.926  0.00  0.00    +0.051 A 
ATOM      4  C   LIG    1      200.175  83.156 163.863  0.00  0.00    +0.086 A 
ATOM      5  N   LIG    1      200.858  83.126 162.695  0.00  0.00    -0.224 NA
ATOM      6  C   LIG    1      200.146  83.146 161.562  0.00  0.00    +0.200 A 
ATOM      7  N   LIG    1      198.796  83.197 161.593  0.00  0.00    -0.207 NA
ATOM      8  C   LIG    1      200.846  83.136 165.080  0.00  0.00    +0.019 A 
ATOM      9  C   LIG    1      198.097  83.228 162.721  0.00  0.00    +0.155 A 
ATOM     10  C   LIG    1      200.174  83.168 166.280  0.00  0.00    +0.005 A 
ENDROOT
BRANCH   1  13
ATOM     11  C   LIG    1      197.343  82.808 169.579  0.00  0.00    +0.140 A 
ATOM     12  O   LIG    1      198.167  82.500 168.618  0.00  0.00    -0.456 OA
ATOM     13  C   LIG    1      198.061  83.252 167.580  0.00  0.00    +0.145 A 
ATOM     14  C   LIG    1      197.057  84.177 167.855  0.00  0.00    +0.040 A 
ATOM     15  C   LIG    1      196.607  83.892 169.120  0.00  0.00    +0.038 A 
BRANCH  11  16
ATOM     16  C   LIG    1      197.183  82.158 170.923  0.00  0.00    +0.153 C 
BRANCH  16  17
ATOM     17  N   LIG    1      196.469  80.895 170.772  0.00  0.00    -0.208 NA
BRANCH  17  18
ATOM     18  C   LIG    1      197.449  79.841 170.632  0.00  0.00    +0.114 C 
BRANCH  18  19
ATOM     19  C   LIG    1      196.937  78.684 169.822  0.00  0.00    +0.170 C 
BRANCH  19  21
ATOM     20  C   LIG    1      199.283  79.235 168.231  0.00  0.00    +0.176 C 
ATOM     21  S   LIG    1      197.619  78.666 168.182  0.00  0.00    -0.007 S 
ATOM     22  O   LIG    1      196.824  79.646 167.354  0.00  0.00    -0.173 OA
ATOM     23  O   LIG    1      197.561  77.287 167.576  0.00  0.00    -0.173 OA
ENDBRANCH  19  21
ENDBRANCH  18  19
ENDBRANCH  17  18
ENDBRANCH  16  17
ENDBRANCH  11  16
ENDBRANCH   1  13
BRANCH   9  24
ATOM     24  N   LIG    1      196.695  83.283 162.802  0.00  0.00    -0.194 NA
BRANCH  24  25
ATOM     25  C   LIG    1      195.889  82.306 162.219  0.00  0.00    +0.073 A 
ATOM     26  C   LIG    1      194.509  82.465 162.064  0.00  0.00    +0.031 A 
ATOM     27  C   LIG    1      193.776  81.474 161.484  0.00  0.00    +0.093 A 
ATOM     28 CL   LIG    1      192.021  81.616 161.269  0.00  0.00    -0.079 Cl
ATOM     29  C   LIG    1      194.347  80.298 161.036  0.00  0.00    +0.150 A 
ATOM     30  C   LIG    1      195.706  80.130 161.184  0.00  0.00    +0.039 A 
ATOM     31  C   LIG    1      196.442  81.129 161.767  0.00  0.00    +0.020 A 
BRANCH  29  32
ATOM     32  O   LIG    1      193.553  79.300 160.443  0.00  0.00    -0.470 OA
BRANCH  32  33
ATOM     33  C   LIG    1      194.061  77.971 160.451  0.00  0.00    +0.232 C 
BRANCH  33  34
ATOM     34  C   LIG    1      193.304  77.223 161.480  0.00  0.00    +0.023 A 
ATOM     35  C   LIG    1      193.845  76.154 162.163  0.00  0.00    +0.029 A 
ATOM     36  C   LIG    1      193.077  75.491 163.126  0.00  0.00    +0.140 A 
ATOM     37  F   LIG    1      193.565  74.435 163.826  0.00  0.00    -0.204 F 
ATOM     38  C   LIG    1      191.791  75.897 163.393  0.00  0.00    +0.030 A 
ATOM     39  C   LIG    1      191.253  76.952 162.721  0.00  0.00    +0.002 A 
ATOM     40  C   LIG    1      192.015  77.606 161.769  0.00  0.00    -0.001 A 
ENDBRANCH  33  34
ENDBRANCH  32  33
ENDBRANCH  29  32
ENDBRANCH  24  25
ENDBRANCH   9  24
TORSDOF 11
ENDMDL
