REMARK VINA RESULT:      -6.0      1.092      5.307
REMARK  Name = 
REMARK                            x       y       z     vdW  Elec       q    Type
REMARK                         _______ _______ _______ _____ _____    ______ ____
ROOT
ATOM      1  C   LIG    1      168.716 150.496 148.830  0.00  0.00    -0.010 A 
ATOM      2  C   LIG    1      168.091 151.724 148.638  0.00  0.00    -0.007 A 
ATOM      3  C   LIG    1      166.943 152.055 149.298  0.00  0.00    -0.010 A 
ATOM      4  C   LIG    1      166.416 151.155 150.156  0.00  0.00    -0.006 A 
ATOM      5  C   LIG    1      166.988 149.887 150.414  0.00  0.00    +0.002 A 
ATOM      6  C   LIG    1      168.136 149.621 149.719  0.00  0.00    -0.006 A 
ENDROOT
BRANCH   1   8
ATOM      7  C   LIG    1      170.023 148.832 147.495  0.00  0.00    +0.020 C 
ATOM      8  C   LIG    1      169.961 150.226 148.080  0.00  0.00    +0.098 C 
ATOM      9  C   LIG    1      171.215 150.541 148.893  0.00  0.00    +0.020 C 
BRANCH   8  10
ATOM     10  C   LIG    1      170.053 151.172 146.929  0.00  0.00    +0.075 C 
ATOM     11  N   LIG    1      170.126 151.933 146.033  0.00  0.00    -0.196 NA
ENDBRANCH   8  10
ENDBRANCH   1   8
BRANCH   3  12
ATOM     12  C   LIG    1      166.245 153.366 149.079  0.00  0.00    +0.098 C 
ATOM     13  C   LIG    1      164.931 153.373 149.777  0.00  0.00    +0.020 C 
ATOM     14  C   LIG    1      166.156 153.575 147.576  0.00  0.00    +0.020 C 
BRANCH  12  15
ATOM     15  C   LIG    1      167.059 154.439 149.643  0.00  0.00    +0.075 C 
ATOM     16  N   LIG    1      167.717 155.307 150.098  0.00  0.00    -0.196 NA
ENDBRANCH  12  15
ENDBRANCH   3  12
BRANCH   5  17
ATOM     17  C   LIG    1      166.268 149.104 151.378  0.00  0.00    +0.156 C 
BRANCH  17  18
ATOM     18  N   LIG    1      165.188 148.285 150.980  0.00  0.00    -0.226 N 
ATOM     19  N   LIG    1      165.044 147.714 149.794  0.00  0.00    -0.145 NA
ATOM     20  C   LIG    1      163.880 147.051 149.753  0.00  0.00    +0.221 A 
ATOM     21  N   LIG    1      163.262 147.203 150.950  0.00  0.00    -0.201 NA
ATOM     22  C   LIG    1      164.082 147.966 151.694  0.00  0.00    +0.198 A 
ENDBRANCH  17  18
ENDBRANCH   5  17
TORSDOF 6
