REMARK VINA RESULT:      -7.3      1.457      2.527
REMARK  Name = ZINC000006087141
REMARK                            x       y       z     vdW  Elec       q    Type
REMARK                         _______ _______ _______ _____ _____    ______ ____
ROOT
ATOM      1  C   LIG    1      163.983 160.183 157.564  0.00  0.00    +0.222 C 
ENDROOT
BRANCH   1   2
ATOM      2  N   LIG    1      163.940 161.297 156.584  0.00  0.00    -0.290 N 
ATOM      3  C   LIG    1      162.863 161.436 155.728  0.00  0.00    +0.262 A 
ATOM      4  O   LIG    1      161.977 160.580 155.788  0.00  0.00    -0.267 OA
ATOM      5  C   LIG    1      162.840 162.573 154.836  0.00  0.00    +0.068 A 
ATOM      6  C   LIG    1      161.785 162.788 153.936  0.00  0.00    +0.035 A 
ATOM      7  C   LIG    1      161.803 163.896 153.096  0.00  0.00    +0.043 A 
ATOM      8 CL   LIG    1      160.496 164.160 151.993  0.00  0.00    -0.083 Cl
ATOM      9  C   LIG    1      162.868 164.798 153.140  0.00  0.00    +0.042 A 
ATOM     10  C   LIG    1      163.915 164.591 154.030  0.00  0.00    +0.068 A 
ATOM     11 CL   LIG    1      165.223 165.733 154.056  0.00  0.00    -0.081 Cl
ATOM     12  C   LIG    1      163.912 163.473 154.895  0.00  0.00    +0.096 A 
ATOM     13  N   LIG    1      164.952 163.250 155.817  0.00  0.00    -0.235 NA
ATOM     14  C   LIG    1      164.952 162.241 156.603  0.00  0.00    +0.203 A 
ENDBRANCH   1   2
BRANCH   1  17
ATOM     15  N   LIG    1      162.050 159.565 158.960  0.00  0.00    -0.281 N 
ATOM     16  H   LIG    1      162.051 158.729 158.344  0.00  0.00    +0.155 HD
ATOM     17  C   LIG    1      162.986 160.520 158.658  0.00  0.00    +0.237 C 
ATOM     18  O   LIG    1      162.978 161.610 159.192  0.00  0.00    -0.274 OA
BRANCH  15  20
ATOM     19  C   LIG    1      161.264 159.372 161.224  0.00  0.00    +0.141 A 
ATOM     20  C   LIG    1      160.965 159.616 159.877  0.00  0.00    +0.076 A 
ATOM     21  C   LIG    1      159.655 159.915 159.494  0.00  0.00    +0.030 A 
ATOM     22  C   LIG    1      158.643 159.949 160.453  0.00  0.00    -0.048 A 
ATOM     23  C   LIG    1      157.223 160.274 160.042  0.00  0.00    +0.044 C 
ATOM     24  C   LIG    1      158.946 159.703 161.793  0.00  0.00    +0.007 A 
ATOM     25  C   LIG    1      160.254 159.415 162.183  0.00  0.00    +0.048 A 
BRANCH  19  27
ATOM     26  C   LIG    1      163.021 157.943 162.328  0.00  0.00    +0.277 C 
ATOM     27  O   LIG    1      162.585 159.092 161.568  0.00  0.00    -0.493 OA
ENDBRANCH  19  27
ENDBRANCH  15  20
ENDBRANCH   1  17
TORSDOF 4
