REMARK VINA RESULT:      -6.6      6.995      9.944
REMARK  Name = 
REMARK                            x       y       z     vdW  Elec       q    Type
REMARK                         _______ _______ _______ _____ _____    ______ ____
ROOT
ATOM      1  O   LIG    1      166.782 146.566 152.055  0.00  0.00    -0.346 OA
ENDROOT
BRANCH   1   7
ATOM      2  C   LIG    1      164.687 143.661 147.580  0.00  0.00    +0.398 A 
ATOM      3  N   LIG    1      164.268 143.208 148.796  0.00  0.00    -0.128 NA
ATOM      4  C   LIG    1      164.918 143.828 149.773  0.00  0.00    +0.306 A 
ATOM      5  O   LIG    1      164.850 143.720 151.169  0.00  0.00    -0.445 OA
ATOM      6  C   LIG    1      165.752 144.487 151.943  0.00  0.00    +0.240 C 
ATOM      7  C   LIG    1      165.619 146.005 151.222  0.00  0.00    +0.182 C 
ATOM      8  C   LIG    1      166.655 145.555 149.972  0.00  0.00    +0.144 C 
ATOM      9  N   LIG    1      165.767 144.692 149.199  0.00  0.00    -0.272 N 
ATOM     10  C   LIG    1      165.637 144.601 147.865  0.00  0.00    +0.178 A 
BRANCH   2  12
ATOM     11  O   LIG    1      164.681 143.207 145.612  0.00  0.00    +0.043 OA
ATOM     12  N   LIG    1      164.215 143.228 146.296  0.00  0.00    +0.103 N 
ATOM     13  O   LIG    1      162.873 142.829 146.265  0.00  0.00    -0.575 OA
ENDBRANCH   2  12
ENDBRANCH   1   7
BRANCH   1  14
ATOM     14  C   LIG    1      166.228 147.729 152.592  0.00  0.00    +0.169 C 
BRANCH  14  15
ATOM     15  C   LIG    1      166.318 148.851 151.601  0.00  0.00    +0.007 A 
ATOM     16  C   LIG    1      165.283 149.756 151.454  0.00  0.00    +0.001 A 
ATOM     17  C   LIG    1      165.319 150.796 150.563  0.00  0.00    +0.037 A 
ATOM     18  C   LIG    1      166.452 150.956 149.764  0.00  0.00    +0.147 A 
ATOM     19  C   LIG    1      167.496 150.078 149.885  0.00  0.00    +0.037 A 
ATOM     20  C   LIG    1      167.424 149.037 150.797  0.00  0.00    +0.001 A 
BRANCH  18  21
ATOM     21  O   LIG    1      166.487 152.016 148.859  0.00  0.00    -0.404 OA
BRANCH  21  22
ATOM     22  C   LIG    1      166.730 153.329 149.369  0.00  0.00    +0.575 C 
ATOM     23  F   LIG    1      167.384 154.071 148.406  0.00  0.00    -0.133 F 
ATOM     24  F   LIG    1      167.554 153.261 150.488  0.00  0.00    -0.133 F 
ATOM     25  F   LIG    1      165.509 153.903 149.677  0.00  0.00    -0.133 F 
ENDBRANCH  21  22
ENDBRANCH  18  21
ENDBRANCH  14  15
ENDBRANCH   1  14
TORSDOF 6
