REMARK VINA RESULT:     -11.1     12.604     15.155
REMARK  Name = 
REMARK                            x       y       z     vdW  Elec       q    Type
REMARK                         _______ _______ _______ _____ _____    ______ ____
ROOT
ATOM      1  C   LIG    1      177.628 110.970 186.759  0.00  0.00    +0.046 C 
ATOM      2  C   LIG    1      177.280 110.899 187.509  0.00  0.00    +0.024 C 
ATOM      3  C   LIG    1      176.045 111.188 186.999  0.00  0.00    +0.072 C 
ATOM      4  N   LIG    1      176.345 111.274 186.207  0.00  0.00    -0.274 NA
ATOM      5  C   LIG    1      175.876 111.462 185.556  0.00  0.00    +0.098 C 
ATOM      6  C   LIG    1      176.226 111.532 184.811  0.00  0.00    -0.013 C 
ATOM      7  C   LIG    1      177.036 111.415 184.719  0.00  0.00    -0.025 C 
ATOM      8  C   LIG    1      177.499 111.229 185.368  0.00  0.00    +0.067 C 
ATOM      9  C   LIG    1      178.320 111.111 185.272  0.00  0.00    +0.212 C 
ATOM     10  C   LIG    1      178.785 110.924 185.922  0.00  0.00    +0.263 C 
ATOM     11  O   LIG    1      179.126 110.996 185.178  0.00  0.00    -0.209 OA
ATOM     12  C   LIG    1      177.161 111.157 186.113  0.00  0.00    +0.087 C 
ATOM     13  C   LIG    1      178.447 110.852 186.667  0.00  0.00    +0.145 C 
ATOM     14  N   LIG    1      178.916 110.664 187.318  0.00  0.00    -0.255 N 
ATOM     15  C   LIG    1      179.727 110.548 187.226  0.00  0.00    +0.307 C 
ATOM     16  O   LIG    1      180.193 110.359 187.885  0.00  0.00    -0.265 OA
ATOM     17  C   LIG    1      178.566 110.594 188.062  0.00  0.00    +0.053 A 
ATOM     18  C   LIG    1      179.054 110.409 188.681  0.00  0.00    +0.051 A 
ATOM     19  C   LIG    1      178.728 110.333 189.439  0.00  0.00    +0.137 A 
ATOM     20  C   LIG    1      177.924 110.444 189.556  0.00  0.00    +0.026 A 
ATOM     21  C   LIG    1      177.434 110.632 188.924  0.00  0.00    -0.003 A 
ATOM     22  C   LIG    1      177.754 110.711 188.158  0.00  0.00    -0.007 A 
ENDROOT
BRANCH  20  23
ATOM     23  C   LIG    1      177.119 110.252 191.452  0.00  0.00    +0.146 C 
ATOM     24  C   LIG    1      177.145 111.078 191.527  0.00  0.00    +0.022 C 
ATOM     25  C   LIG    1      177.451 111.442 190.854  0.00  0.00    +0.020 C 
ATOM     26  C   LIG    1      177.564 112.252 190.719  0.00  0.00    +0.033 C 
ATOM     27  C   LIG    1      177.402 112.887 191.211  0.00  0.00    +0.141 C 
ATOM     28  O   LIG    1      177.423 113.923 191.330  0.00  0.00    -0.224 OA
ATOM     29  C   LIG    1      177.084 112.877 191.971  0.00  0.00    +0.103 C 
ATOM     30  N   LIG    1      176.849 112.225 192.424  0.00  0.00    -0.270 NA
ATOM     31  C   LIG    1      176.876 111.428 192.229  0.00  0.00    +0.077 C 
ATOM     32  C   LIG    1      176.585 110.962 192.847  0.00  0.00    +0.045 C 
ATOM     33  C   LIG    1      176.563 110.141 192.765  0.00  0.00    -0.005 A 
ATOM     34  C   LIG    1      176.248 108.861 193.307  0.00  0.00    +0.015 A 
ATOM     35  C   LIG    1      176.514 108.505 192.612  0.00  0.00    +0.081 A 
ATOM     36  C   LIG    1      176.494 107.686 192.525  0.00  0.00    +0.019 A 
ATOM     37  C   LIG    1      176.203 107.220 193.144  0.00  0.00    +0.002 A 
ATOM     38  C   LIG    1      175.937 107.576 193.839  0.00  0.00    +0.000 A 
ATOM     39  N   LIG    1      176.806 108.969 191.990  0.00  0.00    -0.249 NA
ATOM     40  C   LIG    1      175.959 108.393 193.922  0.00  0.00    +0.001 A 
ATOM     41  C   LIG    1      177.224 112.216 191.526  0.00  0.00    +0.072 C 
ATOM     42  C   LIG    1      176.828 109.785 192.071  0.00  0.00    +0.068 A 
BRANCH  23  43
ATOM     43  C   LIG    1      177.317 109.277 190.817  0.00  0.00    +0.325 C 
ATOM     44  O   LIG    1      178.019 108.866 190.908  0.00  0.00    -0.249 OA
BRANCH  43  45
ATOM     45  O   LIG    1      176.751 109.014 190.284  0.00  0.00    -0.444 OA
ATOM     46  C   LIG    1      176.749 108.230 190.044  0.00  0.00    +0.256 C 
ENDBRANCH  43  45
ENDBRANCH  23  43
BRANCH  27  47
ATOM     47  C   LIG    1      177.717 113.162 190.502  0.00  0.00    +0.032 C 
ATOM     48  C   LIG    1      177.745 113.893 190.122  0.00  0.00    +0.003 C 
ENDBRANCH  27  47
ENDBRANCH  20  23
BRANCH  10  49
ATOM     49  C   LIG    1      180.034 110.743 185.789  0.00  0.00    +0.350 C 
ATOM     50  O   LIG    1      180.353 110.068 185.680  0.00  0.00    -0.247 OA
BRANCH  49  51
ATOM     51  O   LIG    1      180.542 111.403 185.822  0.00  0.00    -0.443 OA
ATOM     52  C   LIG    1      181.297 111.276 185.734  0.00  0.00    +0.256 C 
ENDBRANCH  49  51
ENDBRANCH  10  49
BRANCH   8  53
ATOM     53  C   LIG    1      177.844 111.300 184.626  0.00  0.00    +0.009 C 
ATOM     54  C   LIG    1      177.522 111.830 184.081  0.00  0.00    +0.000 C 
ENDBRANCH   8  53
BRANCH  19  55
ATOM     55  O   LIG    1      179.210 110.139 190.113  0.00  0.00    -0.472 OA
ATOM     56  C   LIG    1      180.166 110.283 190.080  0.00  0.00    +0.252 C 
ENDBRANCH  19  55
BRANCH   9  57
ATOM     57  O   LIG    1      178.660 111.183 184.529  0.00  0.00    -0.449 OA
BRANCH  57  58
ATOM     58  C   LIG    1      178.697 110.647 184.118  0.00  0.00    +0.318 C 
ATOM     59  C   LIG    1      178.915 110.719 183.484  0.00  0.00    +0.121 C 
ATOM     60  O   LIG    1      178.513 110.039 184.348  0.00  0.00    -0.250 OA
ENDBRANCH  57  58
ENDBRANCH   9  57
TORSDOF 10
