REMARK VINA RESULT:      -7.3     73.185     74.223
REMARK  Name = ZINC000049483826
REMARK                            x       y       z     vdW  Elec       q    Type
REMARK                         _______ _______ _______ _____ _____    ______ ____
ROOT
ATOM      1  N   LIG    1      198.967  82.706 163.743  0.00  0.00    -0.175 NA
ATOM      2  C   LIG    1      198.085  82.133 164.765  0.00  0.00    +0.123 C 
ATOM      3  C   LIG    1      198.072  83.542 165.409  0.00  0.00    +0.109 C 
ATOM      4  C   LIG    1      199.338  83.858 164.571  0.00  0.00    +0.123 C 
ENDROOT
BRANCH   3   5
ATOM      5  C   LIG    1      198.348  83.508 166.893  0.00  0.00    +0.233 A 
ATOM      6  O   LIG    1      199.586  83.372 167.316  0.00  0.00    -0.337 OA
ATOM      7  N   LIG    1      199.570  83.370 168.631  0.00  0.00    -0.056 NA
ATOM      8  C   LIG    1      198.330  83.507 168.958  0.00  0.00    +0.209 A 
ATOM      9  N   LIG    1      197.533  83.598 167.863  0.00  0.00    -0.191 NA
BRANCH   8  10
ATOM     10  C   LIG    1      197.848  83.558 170.332  0.00  0.00    +0.060 A 
ATOM     11  S   LIG    1      198.683  84.457 171.565  0.00  0.00    -0.093 S 
ATOM     12  C   LIG    1      197.518  83.998 172.753  0.00  0.00    +0.046 A 
ATOM     13  C   LIG    1      196.544  83.199 172.225  0.00  0.00    +0.008 A 
ATOM     14  C   LIG    1      196.730  82.950 170.857  0.00  0.00    +0.019 A 
ENDBRANCH   8  10
ENDBRANCH   3   5
BRANCH   1  15
ATOM     15  S   LIG    1      198.512  82.847 162.170  0.00  0.00    +0.061 S 
ATOM     16  O   LIG    1      197.868  84.100 161.987  0.00  0.00    -0.153 OA
ATOM     17  O   LIG    1      199.658  82.603 161.363  0.00  0.00    -0.153 OA
BRANCH  15  20
ATOM     18  C   LIG    1      199.123  79.702 162.120  0.00  0.00    +0.046 C 
ATOM     19  C   LIG    1      197.685  80.145 161.904  0.00  0.00    -0.024 A 
ATOM     20  C   LIG    1      197.316  81.506 161.911  0.00  0.00    +0.110 A 
ATOM     21  C   LIG    1      195.973  81.842 161.712  0.00  0.00    +0.048 A 
ATOM     22  C   LIG    1      195.014  80.853 161.505  0.00  0.00    +0.043 A 
ATOM     23 CL   LIG    1      193.359  81.296 161.254  0.00  0.00    -0.083 Cl
ATOM     24  C   LIG    1      195.383  79.512 161.499  0.00  0.00    +0.020 A 
ATOM     25  C   LIG    1      196.712  79.164 161.699  0.00  0.00    +0.007 A 
ENDBRANCH  15  20
ENDBRANCH   1  15
TORSDOF 4
