REMARK VINA RESULT:      -5.7     41.893     43.474
REMARK  Name = ZINC000000622877
REMARK                            x       y       z     vdW  Elec       q    Type
REMARK                         _______ _______ _______ _____ _____    ______ ____
ROOT
ATOM      1  O   LIG    1      179.339 150.442 150.376  0.00  0.00    -0.274 OA
ATOM      2  C   LIG    1      179.514 151.627 150.139  0.00  0.00    +0.235 C 
ATOM      3  N   LIG    1      179.535 152.531 151.157  0.00  0.00    -0.219 N 
ATOM      4  H   LIG    1      179.861 153.498 151.000  0.00  0.00    +0.176 HD
ENDROOT
BRANCH   3   5
ATOM      5  N   LIG    1      179.358 152.118 152.562  0.00  0.00    -0.217 N 
ATOM      6  C   LIG    1      180.441 151.866 153.421  0.00  0.00    +0.079 A 
ATOM      7  C   LIG    1      180.003 151.686 154.692  0.00  0.00    +0.078 A 
ATOM      8  S   LIG    1      178.278 151.779 154.843  0.00  0.00    -0.033 S 
ATOM      9  C   LIG    1      178.110 152.085 153.143  0.00  0.00    +0.308 A 
ATOM     10  O   LIG    1      177.043 152.237 152.509  0.00  0.00    -0.258 OA
BRANCH   6  11
ATOM     11  C   LIG    1      181.814 151.817 152.937  0.00  0.00    +0.001 A 
ATOM     12  C   LIG    1      182.320 150.666 152.319  0.00  0.00    +0.010 A 
ATOM     13  C   LIG    1      183.634 150.621 151.867  0.00  0.00    +0.001 A 
ATOM     14  C   LIG    1      184.463 151.726 152.023  0.00  0.00    +0.000 A 
ATOM     15  C   LIG    1      183.974 152.878 152.632  0.00  0.00    +0.001 A 
ATOM     16  C   LIG    1      182.660 152.922 153.084  0.00  0.00    +0.010 A 
ENDBRANCH   6  11
ENDBRANCH   3   5
BRANCH   2  17
ATOM     17  C   LIG    1      179.724 152.142 148.728  0.00  0.00    +0.132 C 
BRANCH  17  18
ATOM     18  C   LIG    1      181.223 152.225 148.472  0.00  0.00    -0.039 A 
ATOM     19  C   LIG    1      181.978 153.259 149.024  0.00  0.00    +0.005 A 
ATOM     20  C   LIG    1      183.350 153.321 148.803  0.00  0.00    +0.015 A 
ATOM     21  C   LIG    1      183.979 152.351 148.027  0.00  0.00    +0.018 A 
ATOM     22 BR   LIG    1      185.846 152.436 147.730  0.00  0.00    -0.050 Br
ATOM     23  C   LIG    1      183.229 151.318 147.472  0.00  0.00    +0.015 A 
ATOM     24  C   LIG    1      181.856 151.257 147.691  0.00  0.00    +0.005 A 
ENDBRANCH  17  18
ENDBRANCH   2  17
TORSDOF 4
