REMARK VINA RESULT:      -7.5     73.561     77.826
REMARK  Name = ZINC000006083766
REMARK                            x       y       z     vdW  Elec       q    Type
REMARK                         _______ _______ _______ _____ _____    ______ ____
ROOT
ATOM      1  O   LIG    1      203.420  79.731 151.547  0.00  0.00    -0.468 OA
ENDROOT
BRANCH   1   2
ATOM      2  C   LIG    1      203.282  78.420 151.868  0.00  0.00    +0.227 A 
ATOM      3  C   LIG    1      203.439  78.007 153.202  0.00  0.00    +0.073 A 
ATOM      4  C   LIG    1      203.738  78.722 154.398  0.00  0.00    -0.023 A 
ATOM      5  C   LIG    1      203.972  80.224 154.471  0.00  0.00    +0.037 C 
ATOM      6  C   LIG    1      203.921  80.654 155.949  0.00  0.00    +0.005 C 
ATOM      7  C   LIG    1      204.755  79.721 156.844  0.00  0.00    +0.005 C 
ATOM      8  C   LIG    1      204.132  78.316 156.907  0.00  0.00    +0.043 C 
ATOM      9  C   LIG    1      203.830  77.899 155.483  0.00  0.00    -0.004 A 
ATOM     10  S   LIG    1      203.529  76.236 155.089  0.00  0.00    -0.073 S 
ATOM     11  C   LIG    1      203.293  76.647 153.427  0.00  0.00    +0.116 A 
ATOM     12  N   LIG    1      203.007  75.769 152.436  0.00  0.00    -0.228 NA
ATOM     13  C   LIG    1      202.875  76.252 151.224  0.00  0.00    +0.226 A 
ATOM     14  N   LIG    1      203.007  77.567 150.904  0.00  0.00    -0.201 NA
ENDBRANCH   1   2
BRANCH   1  15
ATOM     15  C   LIG    1      202.402  80.473 150.815  0.00  0.00    +0.310 C 
BRANCH  15  17
ATOM     16  O   LIG    1      201.132  81.354 152.614  0.00  0.00    -0.288 OA
ATOM     17  C   LIG    1      201.889  81.607 151.696  0.00  0.00    +0.200 C 
BRANCH  17  18
ATOM     18  C   LIG    1      202.343  82.980 151.470  0.00  0.00    +0.025 A 
ATOM     19  C   LIG    1      203.574  83.443 151.977  0.00  0.00    +0.061 A 
ATOM     20  C   LIG    1      203.970  84.751 151.741  0.00  0.00    +0.163 A 
ATOM     21  O   LIG    1      205.188  85.184 152.219  0.00  0.00    -0.485 OA
ATOM     22  C   LIG    1      205.743  86.417 151.664  0.00  0.00    +0.270 C 
ATOM     23  C   LIG    1      204.613  87.459 151.667  0.00  0.00    +0.270 C 
ATOM     24  O   LIG    1      203.543  86.929 150.828  0.00  0.00    -0.485 OA
ATOM     25  C   LIG    1      203.151  85.627 151.021  0.00  0.00    +0.162 A 
ATOM     26  C   LIG    1      201.938  85.187 150.506  0.00  0.00    +0.050 A 
ATOM     27  C   LIG    1      201.538  83.873 150.732  0.00  0.00    +0.015 A 
ENDBRANCH  17  18
ENDBRANCH  15  17
ENDBRANCH   1  15
TORSDOF 4
