REMARK VINA RESULT:      -8.6     16.478     19.959
REMARK  Name = 
REMARK                            x       y       z     vdW  Elec       q    Type
REMARK                         _______ _______ _______ _____ _____    ______ ____
ROOT
ATOM      1  C   LIG    1      206.102  96.366 159.072  0.00  0.00    +0.243 C 
ATOM      2  C   LIG    1      205.821  96.693 160.614  0.00  0.00    +0.196 C 
ATOM      3  O   LIG    1      206.947  96.556 160.908  0.00  0.00    -0.292 OA
ATOM      4  C   LIG    1      204.951  97.024 161.625  0.00  0.00    +0.090 C 
ATOM      5  C   LIG    1      203.434  97.154 161.438  0.00  0.00    +0.093 C 
ATOM      6  C   LIG    1      203.034  97.855 162.811  0.00  0.00    +0.191 C 
ATOM      7  C   LIG    1      202.675  96.558 163.646  0.00  0.00    +0.157 C 
ATOM      8  C   LIG    1      204.281  96.107 163.836  0.00  0.00    +0.067 C 
ATOM      9  O   LIG    1      202.760  97.398 164.874  0.00  0.00    -0.349 OA
ATOM     10  C   LIG    1      203.782  97.913 164.038  0.00  0.00    +0.185 C 
ATOM     11  C   LIG    1      202.482  95.947 161.360  0.00  0.00    +0.201 C 
ATOM     12  C   LIG    1      202.776  95.026 160.106  0.00  0.00    +0.170 C 
ATOM     13  C   LIG    1      203.269  95.946 159.024  0.00  0.00    +0.048 C 
ATOM     14  C   LIG    1      202.810  95.434 157.599  0.00  0.00    +0.007 C 
ATOM     15  C   LIG    1      202.814  97.336 159.017  0.00  0.00    +0.007 C 
ATOM     16  O   LIG    1      201.592  94.698 159.459  0.00  0.00    -0.222 OA
ATOM     17  C   LIG    1      203.478  93.766 160.312  0.00  0.00    +0.082 C 
ATOM     18  C   LIG    1      203.712  93.577 158.669  0.00  0.00    +0.189 C 
ATOM     19  C   LIG    1      205.092  94.445 158.756  0.00  0.00    -0.009 C 
ATOM     20  C   LIG    1      206.394  93.922 158.675  0.00  0.00    +0.029 C 
ATOM     21  C   LIG    1      205.704  97.879 162.484  0.00  0.00    +0.010 C 
ATOM     22  C   LIG    1      204.661  95.593 162.367  0.00  0.00    +0.161 C 
ATOM     23  O   LIG    1      206.072  95.265 162.772  0.00  0.00    -0.223 OA
ATOM     24  C   LIG    1      204.659  95.660 158.951  0.00  0.00    -0.000 C 
ENDROOT
BRANCH   1  25
ATOM     25  O   LIG    1      205.626  97.711 158.521  0.00  0.00    -0.440 OA
BRANCH  25  27
ATOM     26  C   LIG    1      207.145  97.304 156.580  0.00  0.00    +0.121 C 
ATOM     27  C   LIG    1      205.900  97.798 157.167  0.00  0.00    +0.318 C 
ATOM     28  O   LIG    1      205.105  98.306 156.336  0.00  0.00    -0.250 OA
ENDBRANCH  25  27
ENDBRANCH   1  25
BRANCH   6  29
ATOM     29  O   LIG    1      202.415  98.977 162.730  0.00  0.00    -0.451 OA
BRANCH  29  30
ATOM     30  C   LIG    1      202.293  99.985 161.877  0.00  0.00    +0.317 C 
ATOM     31  O   LIG    1      201.191 100.274 161.365  0.00  0.00    -0.250 OA
ATOM     32  C   LIG    1      203.386 100.904 161.399  0.00  0.00    +0.121 C 
ENDBRANCH  29  30
ENDBRANCH   6  29
BRANCH  11  33
ATOM     33  O   LIG    1      201.232  96.467 161.091  0.00  0.00    -0.446 OA
BRANCH  33  34
ATOM     34  C   LIG    1      200.128  96.927 160.855  0.00  0.00    +0.341 C 
ATOM     35  O   LIG    1      199.753  97.234 162.015  0.00  0.00    -0.245 OA
BRANCH  34  36
ATOM     36  C   LIG    1      199.124  97.250 159.865  0.00  0.00    +0.076 A 
ATOM     37  C   LIG    1      198.195  98.289 160.113  0.00  0.00    +0.006 A 
ATOM     38  C   LIG    1      197.237  98.625 159.197  0.00  0.00    +0.000 A 
ATOM     39  C   LIG    1      197.124  97.977 157.991  0.00  0.00    +0.000 A 
ATOM     40  C   LIG    1      198.023  96.942 157.703  0.00  0.00    +0.000 A 
ATOM     41  C   LIG    1      198.961  96.654 158.668  0.00  0.00    +0.006 A 
ENDBRANCH  34  36
ENDBRANCH  33  34
ENDBRANCH  11  33
BRANCH  18  42
ATOM     42  O   LIG    1      204.375  92.213 158.661  0.00  0.00    -0.446 OA
BRANCH  42  43
ATOM     43  C   LIG    1      203.732  91.417 157.830  0.00  0.00    +0.350 C 
ATOM     44  O   LIG    1      203.242  90.330 158.201  0.00  0.00    -0.247 OA
BRANCH  43  45
ATOM     45  C   LIG    1      203.491  91.722 156.263  0.00  0.00    +0.273 C 
ATOM     46  O   LIG    1      202.403  90.722 156.048  0.00  0.00    -0.209 OA
BRANCH  45  47
ATOM     47  C   LIG    1      204.752  90.638 155.828  0.00  0.00    +0.159 C 
BRANCH  47  48
ATOM     48  C   LIG    1      205.914  91.661 155.666  0.00  0.00    +0.000 A 
ATOM     49  C   LIG    1      205.542  92.774 154.964  0.00  0.00    -0.003 A 
ATOM     50  C   LIG    1      206.425  93.802 154.708  0.00  0.00    -0.000 A 
ATOM     51  C   LIG    1      207.701  93.665 155.189  0.00  0.00    -0.000 A 
ATOM     52  C   LIG    1      208.085  92.559 155.892  0.00  0.00    -0.000 A 
ATOM     53  C   LIG    1      207.146  91.564 156.112  0.00  0.00    -0.003 A 
ENDBRANCH  47  48
BRANCH  47  54
ATOM     54  N   LIG    1      204.269  90.528 154.372  0.00  0.00    -0.196 NA
ATOM     55  C   LIG    1      204.713  89.634 153.475  0.00  0.00    +0.265 C 
ATOM     56  O   LIG    1      205.588  88.803 153.799  0.00  0.00    -0.268 OA
BRANCH  55  57
ATOM     57  C   LIG    1      204.182  89.621 152.119  0.00  0.00    +0.055 A 
ATOM     58  C   LIG    1      204.104  88.458 151.382  0.00  0.00    +0.005 A 
ATOM     59  C   LIG    1      203.595  88.517 150.111  0.00  0.00    +0.000 A 
ATOM     60  C   LIG    1      203.155  89.695 149.536  0.00  0.00    +0.000 A 
ATOM     61  C   LIG    1      203.239  90.852 150.287  0.00  0.00    +0.000 A 
ATOM     62  C   LIG    1      203.749  90.785 151.557  0.00  0.00    +0.005 A 
ENDBRANCH  55  57
ENDBRANCH  47  54
ENDBRANCH  45  47
ENDBRANCH  43  45
ENDBRANCH  42  43
ENDBRANCH  18  42
TORSDOF 14
