REMARK VINA RESULT:      -6.8      2.178      2.902
REMARK  Name = ZINC000009075134
REMARK                            x       y       z     vdW  Elec       q    Type
REMARK                         _______ _______ _______ _____ _____    ______ ____
ROOT
ATOM      1  C   LIG    1      168.649 152.459 148.006  0.00  0.00    +0.061 A 
ATOM      2  C   LIG    1      167.268 152.502 148.264  0.00  0.00    +0.039 A 
ATOM      3  C   LIG    1      166.777 153.225 149.342  0.00  0.00    +0.048 A 
ATOM      4  N   LIG    1      165.382 153.194 149.595  0.00  0.00    -0.284 N 
ATOM      5  H   LIG    1      164.805 152.433 149.212  0.00  0.00    +0.155 HD
ATOM      6  C   LIG    1      164.715 154.052 150.408  0.00  0.00    +0.227 C 
ATOM      7  C   LIG    1      165.378 155.311 150.937  0.00  0.00    +0.170 C 
ATOM      8  S   LIG    1      167.045 154.859 151.548  0.00  0.00    -0.114 S 
ATOM      9  O   LIG    1      163.561 153.771 150.644  0.00  0.00    -0.275 OA
ATOM     10  C   LIG    1      167.645 153.936 150.195  0.00  0.00    +0.030 A 
ATOM     11  C   LIG    1      169.019 153.884 149.949  0.00  0.00    +0.017 A 
ATOM     12  C   LIG    1      169.514 153.160 148.869  0.00  0.00    +0.016 A 
ENDROOT
BRANCH   1  14
ATOM     13  O   LIG    1      168.587 151.619 145.790  0.00  0.00    -0.245 OA
ATOM     14  C   LIG    1      169.162 151.704 146.868  0.00  0.00    +0.340 C 
BRANCH  14  15
ATOM     15  O   LIG    1      170.339 151.049 147.011  0.00  0.00    -0.456 OA
BRANCH  15  16
ATOM     16  C   LIG    1      171.249 150.821 145.903  0.00  0.00    +0.268 C 
BRANCH  16  17
ATOM     17  C   LIG    1      171.323 149.312 145.763  0.00  0.00    -0.010 A 
ATOM     18  C   LIG    1      171.824 148.532 146.805  0.00  0.00    +0.008 A 
ATOM     19  C   LIG    1      171.889 147.147 146.679  0.00  0.00    +0.015 A 
ATOM     20  C   LIG    1      171.452 146.531 145.509  0.00  0.00    +0.018 A 
ATOM     21 BR   LIG    1      171.542 144.649 145.336  0.00  0.00    -0.050 Br
ATOM     22  C   LIG    1      170.945 147.305 144.468  0.00  0.00    +0.015 A 
ATOM     23  C   LIG    1      170.878 148.690 144.596  0.00  0.00    +0.008 A 
ENDBRANCH  16  17
ENDBRANCH  15  16
ENDBRANCH  14  15
ENDBRANCH   1  14
TORSDOF 4
