REMARK VINA RESULT:      -8.4      4.505      6.045
REMARK  Name = ZINC000049420917
REMARK                            x       y       z     vdW  Elec       q    Type
REMARK                         _______ _______ _______ _____ _____    ______ ____
ROOT
ATOM      1  N   LIG    1      169.766 144.200 147.419  0.00  0.00    -0.205 N 
ATOM      2  C   LIG    1      168.414 144.321 147.015  0.00  0.00    +0.160 A 
ATOM      3  N   LIG    1      167.468 144.099 147.939  0.00  0.00    -0.238 NA
ATOM      4  C   LIG    1      166.185 144.194 147.592  0.00  0.00    +0.113 A 
ATOM      5  C   LIG    1      165.798 144.529 146.296  0.00  0.00    +0.022 A 
ATOM      6  C   LIG    1      166.768 144.769 145.330  0.00  0.00    +0.034 A 
ATOM      7  C   LIG    1      168.101 144.652 145.703  0.00  0.00    +0.149 A 
ATOM      8  S   LIG    1      169.487 144.977 144.666  0.00  0.00    +0.082 S 
ATOM      9  O   LIG    1      170.019 143.756 144.195  0.00  0.00    -0.150 OA
ATOM     10  O   LIG    1      169.119 145.933 143.686  0.00  0.00    -0.150 OA
ATOM     11  N   LIG    1      170.561 145.655 145.703  0.00  0.00    -0.150 N 
ATOM     12  C   LIG    1      170.827 144.822 146.744  0.00  0.00    +0.334 C 
ATOM     13  O   LIG    1      171.987 144.631 147.096  0.00  0.00    -0.250 OA
ENDROOT
BRANCH   1  18
ATOM     14  C   LIG    1      171.024 140.901 151.909  0.00  0.00    +0.044 C 
ATOM     15  C   LIG    1      170.682 141.772 150.719  0.00  0.00    -0.050 A 
ATOM     16  C   LIG    1      170.362 143.118 150.905  0.00  0.00    +0.005 A 
ATOM     17  C   LIG    1      170.057 143.927 149.816  0.00  0.00    +0.024 A 
ATOM     18  C   LIG    1      170.080 143.377 148.535  0.00  0.00    +0.044 A 
ATOM     19  C   LIG    1      170.403 142.036 148.332  0.00  0.00    +0.024 A 
ATOM     20  C   LIG    1      170.705 141.237 149.429  0.00  0.00    +0.005 A 
ENDBRANCH   1  18
BRANCH  11  21
ATOM     21  C   LIG    1      171.662 146.348 145.038  0.00  0.00    +0.171 C 
BRANCH  21  22
ATOM     22  C   LIG    1      171.501 147.787 145.486  0.00  0.00    -0.028 A 
ATOM     23  C   LIG    1      170.941 148.730 144.616  0.00  0.00    +0.008 A 
ATOM     24  C   LIG    1      170.784 150.052 145.023  0.00  0.00    +0.038 A 
ATOM     25  C   LIG    1      171.188 150.410 146.302  0.00  0.00    +0.123 A 
ATOM     26  F   LIG    1      171.037 151.695 146.700  0.00  0.00    -0.205 F 
ATOM     27  C   LIG    1      171.739 149.493 147.186  0.00  0.00    +0.038 A 
ATOM     28  C   LIG    1      171.894 148.173 146.772  0.00  0.00    +0.008 A 
ENDBRANCH  21  22
ENDBRANCH  11  21
TORSDOF 3
