REMARK VINA RESULT:      -6.8     12.964     15.238
REMARK  Name = ZINC000049483930
REMARK                            x       y       z     vdW  Elec       q    Type
REMARK                         _______ _______ _______ _____ _____    ______ ____
ROOT
ATOM      1  O   LIG    1      188.098  93.794 155.329  0.00  0.00    -0.275 OA
ATOM      2  C   LIG    1      187.557  92.765 155.680  0.00  0.00    +0.226 C 
ATOM      3  N   LIG    1      188.092  92.081 156.728  0.00  0.00    -0.299 N 
ATOM      4  C   LIG    1      187.664  90.886 157.457  0.00  0.00    +0.122 C 
ATOM      5  C   LIG    1      188.921  91.116 158.354  0.00  0.00    +0.112 C 
ATOM      6  C   LIG    1      189.229  92.432 157.579  0.00  0.00    +0.122 C 
ENDROOT
BRANCH   5   7
ATOM      7  C   LIG    1      189.987  90.068 158.120  0.00  0.00    +0.234 A 
ATOM      8  O   LIG    1      190.719  89.610 159.117  0.00  0.00    -0.337 OA
ATOM      9  N   LIG    1      191.553  88.716 158.633  0.00  0.00    -0.056 NA
ATOM     10  C   LIG    1      191.300  88.662 157.370  0.00  0.00    +0.209 A 
ATOM     11  N   LIG    1      190.306  89.518 157.022  0.00  0.00    -0.191 NA
BRANCH  10  12
ATOM     12  C   LIG    1      191.993  87.785 156.434  0.00  0.00    +0.060 A 
ATOM     13  S   LIG    1      191.855  86.054 156.525  0.00  0.00    -0.093 S 
ATOM     14  C   LIG    1      192.902  85.852 155.169  0.00  0.00    +0.046 A 
ATOM     15  C   LIG    1      193.331  87.052 154.677  0.00  0.00    +0.008 A 
ATOM     16  C   LIG    1      192.818  88.145 155.391  0.00  0.00    +0.019 A 
ENDBRANCH  10  12
ENDBRANCH   5   7
BRANCH   2  17
ATOM     17  C   LIG    1      186.303  92.243 155.010  0.00  0.00    +0.174 C 
BRANCH  17  18
ATOM     18  S   LIG    1      186.737  92.070 153.239  0.00  0.00    -0.058 S 
BRANCH  18  19
ATOM     19  C   LIG    1      186.310  90.415 152.957  0.00  0.00    +0.258 A 
ATOM     20  O   LIG    1      187.273  89.585 152.465  0.00  0.00    -0.431 OA
ATOM     21  C   LIG    1      186.658  88.399 152.357  0.00  0.00    +0.156 A 
ATOM     22  C   LIG    1      187.167  87.184 151.910  0.00  0.00    +0.048 A 
ATOM     23  C   LIG    1      186.309  86.088 151.898  0.00  0.00    +0.004 A 
ATOM     24  C   LIG    1      184.975  86.229 152.326  0.00  0.00    +0.002 A 
ATOM     25  C   LIG    1      184.496  87.460 152.769  0.00  0.00    +0.031 A 
ATOM     26  C   LIG    1      185.359  88.561 152.782  0.00  0.00    +0.110 A 
ATOM     27  N   LIG    1      185.154  89.862 153.160  0.00  0.00    -0.203 NA
ENDBRANCH  18  19
ENDBRANCH  17  18
ENDBRANCH   2  17
TORSDOF 5
