REMARK VINA RESULT:      -7.2      2.850      4.308
REMARK  Name = ZINC000049408611
REMARK                            x       y       z     vdW  Elec       q    Type
REMARK                         _______ _______ _______ _____ _____    ______ ____
ROOT
ATOM      1  N   LIG    1      169.255 147.388 146.206  0.00  0.00    -0.199 N 
ENDROOT
BRANCH   1   2
ATOM      2  C   LIG    1      169.122 148.766 145.961  0.00  0.00    +0.053 A 
ATOM      3  C   LIG    1      170.030 149.706 146.457  0.00  0.00    +0.044 A 
ATOM      4  C   LIG    1      169.844 151.053 146.159  0.00  0.00    +0.043 A 
ATOM      5 CL   LIG    1      170.962 152.229 146.762  0.00  0.00    -0.083 Cl
ATOM      6  C   LIG    1      168.765 151.463 145.371  0.00  0.00    +0.020 A 
ATOM      7  C   LIG    1      167.865 150.519 144.884  0.00  0.00    +0.003 A 
ATOM      8  C   LIG    1      168.038 149.170 145.179  0.00  0.00    +0.025 A 
ENDBRANCH   1   2
BRANCH   1  10
ATOM      9  O   LIG    1      167.384 147.114 147.851  0.00  0.00    -0.150 OA
ATOM     10  S   LIG    1      168.791 146.955 147.747  0.00  0.00    +0.076 S 
ATOM     11  O   LIG    1      169.582 147.676 148.680  0.00  0.00    -0.150 OA
BRANCH  10  12
ATOM     12  C   LIG    1      169.180 145.193 147.873  0.00  0.00    +0.125 A 
ATOM     13  C   LIG    1      170.478 144.757 147.799  0.00  0.00    +0.123 A 
ATOM     14  N   LIG    1      170.736 143.387 147.905  0.00  0.00    -0.287 N 
ATOM     15  C   LIG    1      171.893 142.732 147.880  0.00  0.00    +0.229 A 
ATOM     16  N   LIG    1      171.674 141.461 148.027  0.00  0.00    -0.137 NA
ATOM     17  N   LIG    1      170.327 141.277 148.149  0.00  0.00    -0.130 NA
ATOM     18  C   LIG    1      169.768 142.463 148.072  0.00  0.00    +0.161 A 
ATOM     19  C   LIG    1      168.412 142.899 148.130  0.00  0.00    +0.050 A 
ATOM     20  C   LIG    1      168.122 144.231 148.029  0.00  0.00    +0.034 A 
ENDBRANCH  10  12
ENDBRANCH   1  10
BRANCH   1  21
ATOM     21  C   LIG    1      168.528 146.504 145.284  0.00  0.00    +0.166 C 
BRANCH  21  22
ATOM     22  C   LIG    1      169.591 145.866 144.409  0.00  0.00    -0.028 A 
ATOM     23  C   LIG    1      170.637 146.629 143.886  0.00  0.00    +0.005 A 
ATOM     24  C   LIG    1      171.612 146.033 143.091  0.00  0.00    +0.000 A 
ATOM     25  C   LIG    1      171.547 144.671 142.813  0.00  0.00    +0.000 A 
ATOM     26  C   LIG    1      170.509 143.905 143.332  0.00  0.00    +0.000 A 
ATOM     27  C   LIG    1      169.535 144.501 144.129  0.00  0.00    +0.005 A 
ENDBRANCH  21  22
ENDBRANCH   1  21
TORSDOF 5
