REMARK VINA RESULT:      -7.2     37.462     39.625
REMARK  Name = ZINC000000622956
REMARK                            x       y       z     vdW  Elec       q    Type
REMARK                         _______ _______ _______ _____ _____    ______ ____
ROOT
ATOM      1  C   LIG    1      185.941 112.512 147.192  0.00  0.00    +0.271 C 
ATOM      2  N   LIG    1      185.974 112.075 148.567  0.00  0.00    -0.157 N 
ATOM      3  C   LIG    1      186.784 111.055 148.746  0.00  0.00    +0.250 C 
ATOM      4  C   LIG    1      187.070 110.386 150.082  0.00  0.00    +0.124 C 
ATOM      5  C   LIG    1      188.517 110.749 150.487  0.00  0.00    +0.012 C 
ATOM      6  C   LIG    1      189.513 109.871 149.708  0.00  0.00    +0.004 C 
ATOM      7  C   LIG    1      189.608 110.135 148.190  0.00  0.00    +0.045 C 
ATOM      8  C   LIG    1      188.336 109.628 147.482  0.00  0.00    +0.236 C 
ATOM      9  N   LIG    1      187.338 110.697 147.616  0.00  0.00    -0.258 N 
ATOM     10  C   LIG    1      186.932 111.557 146.484  0.00  0.00    +0.323 C 
ENDROOT
BRANCH   1  11
ATOM     11  C   LIG    1      184.533 112.396 146.596  0.00  0.00    +0.034 A 
ATOM     12  C   LIG    1      183.893 111.150 146.473  0.00  0.00    +0.060 A 
ATOM     13  C   LIG    1      182.615 111.109 145.935  0.00  0.00    +0.167 A 
ATOM     14  O   LIG    1      181.852 110.013 145.741  0.00  0.00    -0.453 OA
ATOM     15  C   LIG    1      180.576 110.500 145.157  0.00  0.00    +0.466 C 
ATOM     16  O   LIG    1      180.740 111.970 145.044  0.00  0.00    -0.453 OA
ATOM     17  C   LIG    1      181.967 112.247 145.531  0.00  0.00    +0.166 A 
ATOM     18  C   LIG    1      182.564 113.492 145.645  0.00  0.00    +0.050 A 
ATOM     19  C   LIG    1      183.851 113.561 146.182  0.00  0.00    +0.014 A 
ENDBRANCH   1  11
BRANCH   2  20
ATOM     20  C   LIG    1      185.281 112.735 149.610  0.00  0.00    +0.124 A 
ATOM     21  C   LIG    1      185.986 113.626 150.417  0.00  0.00    +0.050 A 
ATOM     22  C   LIG    1      185.317 114.279 151.449  0.00  0.00    +0.024 A 
ATOM     23  C   LIG    1      183.957 114.035 151.662  0.00  0.00    +0.041 A 
ATOM     24 CL   LIG    1      183.129 114.848 152.945  0.00  0.00    -0.084 Cl
ATOM     25  C   LIG    1      183.262 113.136 150.846  0.00  0.00    +0.024 A 
ATOM     26  C   LIG    1      183.926 112.479 149.813  0.00  0.00    +0.050 A 
ENDBRANCH   2  20
BRANCH   1  27
ATOM     27  O   LIG    1      186.426 113.849 147.180  0.00  0.00    -0.347 OA
ATOM     28  H   LIG    1      187.362 113.822 146.931  0.00  0.00    +0.215 HD
ENDBRANCH   1  27
TORSDOF 3
