MODEL 1
REMARK VINA RESULT:      -8.0      0.000      0.000
REMARK  Name = ZINC000000622956
REMARK                            x       y       z     vdW  Elec       q    Type
REMARK                         _______ _______ _______ _____ _____    ______ ____
ROOT
ATOM      1  C   LIG    1      168.947 149.121 146.163  0.00  0.00    +0.271 C 
ATOM      2  N   LIG    1      169.405 149.092 147.531  0.00  0.00    -0.157 N 
ATOM      3  C   LIG    1      170.054 150.186 147.862  0.00  0.00    +0.250 C 
ATOM      4  C   LIG    1      170.630 150.481 149.240  0.00  0.00    +0.124 C 
ATOM      5  C   LIG    1      169.770 151.596 149.877  0.00  0.00    +0.012 C 
ATOM      6  C   LIG    1      170.173 152.963 149.293  0.00  0.00    +0.004 C 
ATOM      7  C   LIG    1      169.820 153.198 147.809  0.00  0.00    +0.045 C 
ATOM      8  C   LIG    1      170.732 152.346 146.905  0.00  0.00    +0.236 C 
ATOM      9  N   LIG    1      170.124 151.010 146.849  0.00  0.00    -0.258 N 
ATOM     10  C   LIG    1      169.426 150.500 145.650  0.00  0.00    +0.323 C 
ENDROOT
BRANCH   1  11
ATOM     11  C   LIG    1      169.554 147.979 145.340  0.00  0.00    +0.034 A 
ATOM     12  C   LIG    1      168.870 146.763 145.160  0.00  0.00    +0.060 A 
ATOM     13  C   LIG    1      169.465 145.770 144.397  0.00  0.00    +0.167 A 
ATOM     14  O   LIG    1      168.962 144.549 144.120  0.00  0.00    -0.453 OA
ATOM     15  C   LIG    1      169.969 143.876 143.260  0.00  0.00    +0.466 C 
ATOM     16  O   LIG    1      171.072 144.857 143.118  0.00  0.00    -0.453 OA
ATOM     17  C   LIG    1      170.692 145.950 143.813  0.00  0.00    +0.166 A 
ATOM     18  C   LIG    1      171.391 147.136 143.962  0.00  0.00    +0.050 A 
ATOM     19  C   LIG    1      170.814 148.152 144.726  0.00  0.00    +0.014 A 
ENDBRANCH   1  11
BRANCH   2  20
ATOM     20  C   LIG    1      169.104 148.041 148.430  0.00  0.00    +0.124 A 
ATOM     21  C   LIG    1      170.035 147.017 148.593  0.00  0.00    +0.050 A 
ATOM     22  C   LIG    1      169.750 145.975 149.471  0.00  0.00    +0.024 A 
ATOM     23  C   LIG    1      168.540 145.967 150.173  0.00  0.00    +0.041 A 
ATOM     24 CL   LIG    1      168.188 144.671 151.263  0.00  0.00    -0.084 Cl
ATOM     25  C   LIG    1      167.613 147.000 149.998  0.00  0.00    +0.024 A 
ATOM     26  C   LIG    1      167.893 148.044 149.121  0.00  0.00    +0.050 A 
ENDBRANCH   2  20
BRANCH   1  27
ATOM     27  O   LIG    1      167.528 149.059 146.210  0.00  0.00    -0.347 OA
ATOM     28  H   LIG    1      167.237 148.413 145.548  0.00  0.00    +0.215 HD
ENDBRANCH   1  27
TORSDOF 3
ENDMDL
MODEL 2
REMARK VINA RESULT:      -7.8      4.528      6.143
REMARK  Name = ZINC000000622956
REMARK                            x       y       z     vdW  Elec       q    Type
REMARK                         _______ _______ _______ _____ _____    ______ ____
ROOT
ATOM      1  C   LIG    1      167.284 143.473 146.390  0.00  0.00    +0.271 C 
ATOM      2  N   LIG    1      167.640 143.522 147.788  0.00  0.00    -0.157 N 
ATOM      3  C   LIG    1      166.691 144.053 148.526  0.00  0.00    +0.250 C 
ATOM      4  C   LIG    1      166.741 144.212 150.038  0.00  0.00    +0.124 C 
ATOM      5  C   LIG    1      165.735 143.210 150.648  0.00  0.00    +0.012 C 
ATOM      6  C   LIG    1      164.305 143.767 150.525  0.00  0.00    +0.004 C 
ATOM      7  C   LIG    1      163.730 143.854 149.095  0.00  0.00    +0.045 C 
ATOM      8  C   LIG    1      164.426 144.984 148.311  0.00  0.00    +0.236 C 
ATOM      9  N   LIG    1      165.673 144.412 147.786  0.00  0.00    -0.258 N 
ATOM     10  C   LIG    1      165.862 144.084 146.357  0.00  0.00    +0.323 C 
ENDROOT
BRANCH   1  11
ATOM     11  C   LIG    1      168.259 144.286 145.530  0.00  0.00    +0.034 A 
ATOM     12  C   LIG    1      169.272 143.659 144.782  0.00  0.00    +0.060 A 
ATOM     13  C   LIG    1      170.117 144.446 144.015  0.00  0.00    +0.167 A 
ATOM     14  O   LIG    1      171.138 144.023 143.240  0.00  0.00    -0.453 OA
ATOM     15  C   LIG    1      171.717 145.243 142.622  0.00  0.00    +0.466 C 
ATOM     16  O   LIG    1      170.910 146.366 143.158  0.00  0.00    -0.453 OA
ATOM     17  C   LIG    1      169.984 145.809 143.966  0.00  0.00    +0.166 A 
ATOM     18  C   LIG    1      168.994 146.460 144.683  0.00  0.00    +0.050 A 
ATOM     19  C   LIG    1      168.129 145.691 145.464  0.00  0.00    +0.014 A 
ENDBRANCH   1  11
BRANCH   2  20
ATOM     20  C   LIG    1      168.838 142.972 148.304  0.00  0.00    +0.124 A 
ATOM     21  C   LIG    1      169.994 143.750 148.273  0.00  0.00    +0.050 A 
ATOM     22  C   LIG    1      171.180 143.220 148.774  0.00  0.00    +0.024 A 
ATOM     23  C   LIG    1      171.198 141.924 149.298  0.00  0.00    +0.041 A 
ATOM     24 CL   LIG    1      172.673 141.268 149.919  0.00  0.00    -0.084 Cl
ATOM     25  C   LIG    1      170.031 141.152 149.320  0.00  0.00    +0.024 A 
ATOM     26  C   LIG    1      168.842 141.677 148.819  0.00  0.00    +0.050 A 
ENDBRANCH   2  20
BRANCH   1  27
ATOM     27  O   LIG    1      167.257 142.099 146.025  0.00  0.00    -0.347 OA
ATOM     28  H   LIG    1      167.962 141.951 145.377  0.00  0.00    +0.215 HD
ENDBRANCH   1  27
TORSDOF 3
ENDMDL
MODEL 3
REMARK VINA RESULT:      -7.4      3.156      6.603
REMARK  Name = ZINC000000622956
REMARK                            x       y       z     vdW  Elec       q    Type
REMARK                         _______ _______ _______ _____ _____    ______ ____
ROOT
ATOM      1  C   LIG    1      168.626 146.000 147.646  0.00  0.00    +0.271 C 
ATOM      2  N   LIG    1      169.660 146.878 147.153  0.00  0.00    -0.157 N 
ATOM      3  C   LIG    1      170.438 146.286 146.273  0.00  0.00    +0.250 C 
ATOM      4  C   LIG    1      171.595 146.949 145.540  0.00  0.00    +0.124 C 
ATOM      5  C   LIG    1      171.176 147.118 144.062  0.00  0.00    +0.012 C 
ATOM      6  C   LIG    1      171.327 145.777 143.320  0.00  0.00    +0.004 C 
ATOM      7  C   LIG    1      170.344 144.661 143.729  0.00  0.00    +0.045 C 
ATOM      8  C   LIG    1      170.698 144.126 145.130  0.00  0.00    +0.236 C 
ATOM      9  N   LIG    1      170.072 145.044 146.090  0.00  0.00    -0.258 N 
ATOM     10  C   LIG    1      168.878 144.678 146.882  0.00  0.00    +0.323 C 
ENDROOT
BRANCH   1  11
ATOM     11  C   LIG    1      168.734 145.797 149.162  0.00  0.00    +0.034 A 
ATOM     12  C   LIG    1      167.883 146.477 150.053  0.00  0.00    +0.060 A 
ATOM     13  C   LIG    1      168.022 146.244 151.413  0.00  0.00    +0.167 A 
ATOM     14  O   LIG    1      167.301 146.802 152.408  0.00  0.00    -0.453 OA
ATOM     15  C   LIG    1      167.822 146.218 153.670  0.00  0.00    +0.466 C 
ATOM     16  O   LIG    1      168.909 145.300 153.249  0.00  0.00    -0.453 OA
ATOM     17  C   LIG    1      168.956 145.370 151.902  0.00  0.00    +0.166 A 
ATOM     18  C   LIG    1      169.805 144.678 151.055  0.00  0.00    +0.050 A 
ATOM     19  C   LIG    1      169.687 144.894 149.681  0.00  0.00    +0.014 A 
ENDBRANCH   1  11
BRANCH   2  20
ATOM     20  C   LIG    1      169.757 148.244 147.512  0.00  0.00    +0.124 A 
ATOM     21  C   LIG    1      169.035 149.179 146.773  0.00  0.00    +0.050 A 
ATOM     22  C   LIG    1      169.125 150.526 147.113  0.00  0.00    +0.024 A 
ATOM     23  C   LIG    1      169.933 150.922 148.184  0.00  0.00    +0.041 A 
ATOM     24 CL   LIG    1      170.043 152.596 148.604  0.00  0.00    -0.084 Cl
ATOM     25  C   LIG    1      170.656 149.973 148.915  0.00  0.00    +0.024 A 
ATOM     26  C   LIG    1      170.570 148.624 148.579  0.00  0.00    +0.050 A 
ENDBRANCH   2  20
BRANCH   1  27
ATOM     27  O   LIG    1      167.386 146.580 147.265  0.00  0.00    -0.347 OA
ATOM     28  H   LIG    1      167.135 146.206 146.407  0.00  0.00    +0.215 HD
ENDBRANCH   1  27
TORSDOF 3
ENDMDL
MODEL 4
REMARK VINA RESULT:      -7.4     47.148     50.123
REMARK  Name = ZINC000000622956
REMARK                            x       y       z     vdW  Elec       q    Type
REMARK                         _______ _______ _______ _____ _____    ______ ____
ROOT
ATOM      1  C   LIG    1      205.779 115.374 145.123  0.00  0.00    +0.271 C 
ATOM      2  N   LIG    1      205.618 114.849 143.789  0.00  0.00    -0.157 N 
ATOM      3  C   LIG    1      204.553 115.332 143.189  0.00  0.00    +0.250 C 
ATOM      4  C   LIG    1      204.125 115.006 141.765  0.00  0.00    +0.124 C 
ATOM      5  C   LIG    1      204.362 116.269 140.906  0.00  0.00    +0.012 C 
ATOM      6  C   LIG    1      203.222 117.278 141.136  0.00  0.00    +0.004 C 
ATOM      7  C   LIG    1      203.169 117.936 142.531  0.00  0.00    +0.045 C 
ATOM      8  C   LIG    1      202.711 116.910 143.586  0.00  0.00    +0.236 C 
ATOM      9  N   LIG    1      203.910 116.156 143.975  0.00  0.00    -0.258 N 
ATOM     10  C   LIG    1      204.579 116.339 145.280  0.00  0.00    +0.323 C 
ENDROOT
BRANCH   1  11
ATOM     11  C   LIG    1      205.740 114.261 146.177  0.00  0.00    +0.034 A 
ATOM     12  C   LIG    1      206.882 113.923 146.925  0.00  0.00    +0.060 A 
ATOM     13  C   LIG    1      206.783 112.914 147.872  0.00  0.00    +0.167 A 
ATOM     14  O   LIG    1      207.767 112.457 148.675  0.00  0.00    -0.453 OA
ATOM     15  C   LIG    1      207.153 111.393 149.509  0.00  0.00    +0.466 C 
ATOM     16  O   LIG    1      205.742 111.315 149.059  0.00  0.00    -0.453 OA
ATOM     17  C   LIG    1      205.605 112.251 148.096  0.00  0.00    +0.166 A 
ATOM     18  C   LIG    1      204.459 112.563 147.384  0.00  0.00    +0.050 A 
ATOM     19  C   LIG    1      204.532 113.574 146.425  0.00  0.00    +0.014 A 
ENDBRANCH   1  11
BRANCH   2  20
ATOM     20  C   LIG    1      206.556 113.985 143.175  0.00  0.00    +0.124 A 
ATOM     21  C   LIG    1      206.509 112.626 143.481  0.00  0.00    +0.050 A 
ATOM     22  C   LIG    1      207.429 111.766 142.886  0.00  0.00    +0.024 A 
ATOM     23  C   LIG    1      208.382 112.272 141.998  0.00  0.00    +0.041 A 
ATOM     24 CL   LIG    1      209.524 111.201 141.261  0.00  0.00    -0.084 Cl
ATOM     25  C   LIG    1      208.421 113.639 141.702  0.00  0.00    +0.024 A 
ATOM     26  C   LIG    1      207.504 114.504 142.294  0.00  0.00    +0.050 A 
ENDBRANCH   2  20
BRANCH   1  27
ATOM     27  O   LIG    1      207.010 116.086 145.133  0.00  0.00    -0.347 OA
ATOM     28  H   LIG    1      207.098 116.513 145.998  0.00  0.00    +0.215 HD
ENDBRANCH   1  27
TORSDOF 3
ENDMDL
MODEL 5
REMARK VINA RESULT:      -7.2      6.133      9.034
REMARK  Name = ZINC000000622956
REMARK                            x       y       z     vdW  Elec       q    Type
REMARK                         _______ _______ _______ _____ _____    ______ ____
ROOT
ATOM      1  C   LIG    1      168.358 141.633 151.900  0.00  0.00    +0.271 C 
ATOM      2  N   LIG    1      169.578 142.363 151.655  0.00  0.00    -0.157 N 
ATOM      3  C   LIG    1      170.290 142.525 152.749  0.00  0.00    +0.250 C 
ATOM      4  C   LIG    1      171.643 143.218 152.821  0.00  0.00    +0.124 C 
ATOM      5  C   LIG    1      172.711 142.133 153.085  0.00  0.00    +0.012 C 
ATOM      6  C   LIG    1      172.704 141.747 154.576  0.00  0.00    +0.004 C 
ATOM      7  C   LIG    1      171.455 140.992 155.077  0.00  0.00    +0.045 C 
ATOM      8  C   LIG    1      170.245 141.945 155.137  0.00  0.00    +0.236 C 
ATOM      9  N   LIG    1      169.688 141.988 153.779  0.00  0.00    -0.258 N 
ATOM     10  C   LIG    1      168.418 141.325 153.416  0.00  0.00    +0.323 C 
ENDROOT
BRANCH   1  11
ATOM     11  C   LIG    1      167.120 142.467 151.549  0.00  0.00    +0.034 A 
ATOM     12  C   LIG    1      166.427 142.274 150.341  0.00  0.00    +0.060 A 
ATOM     13  C   LIG    1      165.309 143.052 150.084  0.00  0.00    +0.167 A 
ATOM     14  O   LIG    1      164.525 143.008 148.985  0.00  0.00    -0.453 OA
ATOM     15  C   LIG    1      163.461 144.021 149.200  0.00  0.00    +0.466 C 
ATOM     16  O   LIG    1      163.764 144.624 150.520  0.00  0.00    -0.453 OA
ATOM     17  C   LIG    1      164.864 143.991 150.977  0.00  0.00    +0.166 A 
ATOM     18  C   LIG    1      165.517 144.204 152.180  0.00  0.00    +0.050 A 
ATOM     19  C   LIG    1      166.647 143.434 152.463  0.00  0.00    +0.014 A 
ENDBRANCH   1  11
BRANCH   2  20
ATOM     20  C   LIG    1      169.995 142.772 150.365  0.00  0.00    +0.124 A 
ATOM     21  C   LIG    1      170.762 141.891 149.604  0.00  0.00    +0.050 A 
ATOM     22  C   LIG    1      171.181 142.282 148.336  0.00  0.00    +0.024 A 
ATOM     23  C   LIG    1      170.831 143.544 147.844  0.00  0.00    +0.041 A 
ATOM     24 CL   LIG    1      171.354 144.027 146.267  0.00  0.00    -0.084 Cl
ATOM     25  C   LIG    1      170.064 144.419 148.620  0.00  0.00    +0.024 A 
ATOM     26  C   LIG    1      169.642 144.034 149.889  0.00  0.00    +0.050 A 
ENDBRANCH   2  20
BRANCH   1  27
ATOM     27  O   LIG    1      168.440 140.438 151.134  0.00  0.00    -0.347 OA
ATOM     28  H   LIG    1      167.987 140.595 150.292  0.00  0.00    +0.215 HD
ENDBRANCH   1  27
TORSDOF 3
ENDMDL
MODEL 6
REMARK VINA RESULT:      -7.2     37.462     39.625
REMARK  Name = ZINC000000622956
REMARK                            x       y       z     vdW  Elec       q    Type
REMARK                         _______ _______ _______ _____ _____    ______ ____
ROOT
ATOM      1  C   LIG    1      185.941 112.512 147.192  0.00  0.00    +0.271 C 
ATOM      2  N   LIG    1      185.974 112.075 148.567  0.00  0.00    -0.157 N 
ATOM      3  C   LIG    1      186.784 111.055 148.746  0.00  0.00    +0.250 C 
ATOM      4  C   LIG    1      187.070 110.386 150.082  0.00  0.00    +0.124 C 
ATOM      5  C   LIG    1      188.517 110.749 150.487  0.00  0.00    +0.012 C 
ATOM      6  C   LIG    1      189.513 109.871 149.708  0.00  0.00    +0.004 C 
ATOM      7  C   LIG    1      189.608 110.135 148.190  0.00  0.00    +0.045 C 
ATOM      8  C   LIG    1      188.336 109.628 147.482  0.00  0.00    +0.236 C 
ATOM      9  N   LIG    1      187.338 110.697 147.616  0.00  0.00    -0.258 N 
ATOM     10  C   LIG    1      186.932 111.557 146.484  0.00  0.00    +0.323 C 
ENDROOT
BRANCH   1  11
ATOM     11  C   LIG    1      184.533 112.396 146.596  0.00  0.00    +0.034 A 
ATOM     12  C   LIG    1      183.893 111.150 146.473  0.00  0.00    +0.060 A 
ATOM     13  C   LIG    1      182.615 111.109 145.935  0.00  0.00    +0.167 A 
ATOM     14  O   LIG    1      181.852 110.013 145.741  0.00  0.00    -0.453 OA
ATOM     15  C   LIG    1      180.576 110.500 145.157  0.00  0.00    +0.466 C 
ATOM     16  O   LIG    1      180.740 111.970 145.044  0.00  0.00    -0.453 OA
ATOM     17  C   LIG    1      181.967 112.247 145.531  0.00  0.00    +0.166 A 
ATOM     18  C   LIG    1      182.564 113.492 145.645  0.00  0.00    +0.050 A 
ATOM     19  C   LIG    1      183.851 113.561 146.182  0.00  0.00    +0.014 A 
ENDBRANCH   1  11
BRANCH   2  20
ATOM     20  C   LIG    1      185.281 112.735 149.610  0.00  0.00    +0.124 A 
ATOM     21  C   LIG    1      185.986 113.626 150.417  0.00  0.00    +0.050 A 
ATOM     22  C   LIG    1      185.317 114.279 151.449  0.00  0.00    +0.024 A 
ATOM     23  C   LIG    1      183.957 114.035 151.662  0.00  0.00    +0.041 A 
ATOM     24 CL   LIG    1      183.129 114.848 152.945  0.00  0.00    -0.084 Cl
ATOM     25  C   LIG    1      183.262 113.136 150.846  0.00  0.00    +0.024 A 
ATOM     26  C   LIG    1      183.926 112.479 149.813  0.00  0.00    +0.050 A 
ENDBRANCH   2  20
BRANCH   1  27
ATOM     27  O   LIG    1      186.426 113.849 147.180  0.00  0.00    -0.347 OA
ATOM     28  H   LIG    1      187.362 113.822 146.931  0.00  0.00    +0.215 HD
ENDBRANCH   1  27
TORSDOF 3
ENDMDL
MODEL 7
REMARK VINA RESULT:      -7.1     46.375     49.612
REMARK  Name = ZINC000000622956
REMARK                            x       y       z     vdW  Elec       q    Type
REMARK                         _______ _______ _______ _____ _____    ______ ____
ROOT
ATOM      1  C   LIG    1      161.945 105.787 172.092  0.00  0.00    +0.271 C 
ATOM      2  N   LIG    1      162.356 107.164 171.958  0.00  0.00    -0.157 N 
ATOM      3  C   LIG    1      162.453 107.535 170.701  0.00  0.00    +0.250 C 
ATOM      4  C   LIG    1      162.826 108.932 170.225  0.00  0.00    +0.124 C 
ATOM      5  C   LIG    1      161.556 109.576 169.623  0.00  0.00    +0.012 C 
ATOM      6  C   LIG    1      161.320 109.033 168.202  0.00  0.00    +0.004 C 
ATOM      7  C   LIG    1      160.915 107.547 168.100  0.00  0.00    +0.045 C 
ATOM      8  C   LIG    1      162.118 106.644 168.435  0.00  0.00    +0.236 C 
ATOM      9  N   LIG    1      162.161 106.543 169.899  0.00  0.00    -0.258 N 
ATOM     10  C   LIG    1      161.771 105.317 170.627  0.00  0.00    +0.323 C 
ENDROOT
BRANCH   1  11
ATOM     11  C   LIG    1      163.002 104.951 172.823  0.00  0.00    +0.034 A 
ATOM     12  C   LIG    1      162.767 104.443 174.114  0.00  0.00    +0.060 A 
ATOM     13  C   LIG    1      163.756 103.685 174.721  0.00  0.00    +0.167 A 
ATOM     14  O   LIG    1      163.709 103.122 175.947  0.00  0.00    -0.453 OA
ATOM     15  C   LIG    1      165.000 102.409 176.121  0.00  0.00    +0.466 C 
ATOM     16  O   LIG    1      165.752 102.662 174.868  0.00  0.00    -0.453 OA
ATOM     17  C   LIG    1      164.944 103.416 174.094  0.00  0.00    +0.166 A 
ATOM     18  C   LIG    1      165.207 103.892 172.820  0.00  0.00    +0.050 A 
ATOM     19  C   LIG    1      164.228 104.659 172.186  0.00  0.00    +0.014 A 
ENDBRANCH   1  11
BRANCH   2  20
ATOM     20  C   LIG    1      162.541 108.031 173.062  0.00  0.00    +0.124 A 
ATOM     21  C   LIG    1      161.493 108.874 173.428  0.00  0.00    +0.050 A 
ATOM     22  C   LIG    1      161.662 109.734 174.510  0.00  0.00    +0.024 A 
ATOM     23  C   LIG    1      162.873 109.742 175.210  0.00  0.00    +0.041 A 
ATOM     24 CL   LIG    1      163.080 110.813 176.553  0.00  0.00    -0.084 Cl
ATOM     25  C   LIG    1      163.918 108.893 174.830  0.00  0.00    +0.024 A 
ATOM     26  C   LIG    1      163.754 108.031 173.749  0.00  0.00    +0.050 A 
ENDBRANCH   2  20
BRANCH   1  27
ATOM     27  O   LIG    1      160.698 105.800 172.774  0.00  0.00    -0.347 OA
ATOM     28  H   LIG    1      160.856 105.515 173.686  0.00  0.00    +0.215 HD
ENDBRANCH   1  27
TORSDOF 3
ENDMDL
MODEL 8
REMARK VINA RESULT:      -7.0     43.741     46.771
REMARK  Name = ZINC000000622956
REMARK                            x       y       z     vdW  Elec       q    Type
REMARK                         _______ _______ _______ _____ _____    ______ ____
ROOT
ATOM      1  C   LIG    1      202.503 114.694 143.190  0.00  0.00    +0.271 C 
ATOM      2  N   LIG    1      202.308 116.116 143.336  0.00  0.00    -0.157 N 
ATOM      3  C   LIG    1      202.985 116.805 142.444  0.00  0.00    +0.250 C 
ATOM      4  C   LIG    1      202.964 118.321 142.307  0.00  0.00    +0.124 C 
ATOM      5  C   LIG    1      202.197 118.662 141.009  0.00  0.00    +0.012 C 
ATOM      6  C   LIG    1      203.115 118.453 139.791  0.00  0.00    +0.004 C 
ATOM      7  C   LIG    1      203.500 116.992 139.473  0.00  0.00    +0.045 C 
ATOM      8  C   LIG    1      204.487 116.461 140.530  0.00  0.00    +0.236 C 
ATOM      9  N   LIG    1      203.672 116.010 141.665  0.00  0.00    -0.258 N 
ATOM     10  C   LIG    1      203.460 114.581 141.979  0.00  0.00    +0.323 C 
ENDROOT
BRANCH   1  11
ATOM     11  C   LIG    1      203.123 114.076 144.449  0.00  0.00    +0.034 A 
ATOM     12  C   LIG    1      204.464 114.319 144.798  0.00  0.00    +0.060 A 
ATOM     13  C   LIG    1      204.966 113.741 145.954  0.00  0.00    +0.167 A 
ATOM     14  O   LIG    1      206.218 113.861 146.442  0.00  0.00    -0.453 OA
ATOM     15  C   LIG    1      206.246 113.070 147.699  0.00  0.00    +0.466 C 
ATOM     16  O   LIG    1      204.882 112.500 147.826  0.00  0.00    -0.453 OA
ATOM     17  C   LIG    1      204.189 112.951 146.760  0.00  0.00    +0.166 A 
ATOM     18  C   LIG    1      202.863 112.696 146.452  0.00  0.00    +0.050 A 
ATOM     19  C   LIG    1      202.332 113.266 145.293  0.00  0.00    +0.014 A 
ENDBRANCH   1  11
BRANCH   2  20
ATOM     20  C   LIG    1      201.416 116.686 144.275  0.00  0.00    +0.124 A 
ATOM     21  C   LIG    1      200.116 116.977 143.866  0.00  0.00    +0.050 A 
ATOM     22  C   LIG    1      199.229 117.541 144.779  0.00  0.00    +0.024 A 
ATOM     23  C   LIG    1      199.651 117.809 146.086  0.00  0.00    +0.041 A 
ATOM     24 CL   LIG    1      198.547 118.511 147.217  0.00  0.00    -0.084 Cl
ATOM     25  C   LIG    1      200.960 117.516 146.482  0.00  0.00    +0.024 A 
ATOM     26  C   LIG    1      201.851 116.952 145.573  0.00  0.00    +0.050 A 
ENDBRANCH   2  20
BRANCH   1  27
ATOM     27  O   LIG    1      201.230 114.139 142.886  0.00  0.00    -0.347 OA
ATOM     28  H   LIG    1      200.878 113.743 143.697  0.00  0.00    +0.215 HD
ENDBRANCH   1  27
TORSDOF 3
ENDMDL
MODEL 9
REMARK VINA RESULT:      -7.0     17.136     19.279
REMARK  Name = ZINC000000622956
REMARK                            x       y       z     vdW  Elec       q    Type
REMARK                         _______ _______ _______ _____ _____    ______ ____
ROOT
ATOM      1  C   LIG    1      163.129 157.877 159.876  0.00  0.00    +0.271 C 
ATOM      2  N   LIG    1      164.028 158.984 160.093  0.00  0.00    -0.157 N 
ATOM      3  C   LIG    1      164.676 158.884 161.232  0.00  0.00    +0.250 C 
ATOM      4  C   LIG    1      165.722 159.869 161.735  0.00  0.00    +0.124 C 
ATOM      5  C   LIG    1      167.098 159.169 161.657  0.00  0.00    +0.012 C 
ATOM      6  C   LIG    1      167.264 158.211 162.851  0.00  0.00    +0.004 C 
ATOM      7  C   LIG    1      166.354 156.965 162.853  0.00  0.00    +0.045 C 
ATOM      8  C   LIG    1      164.898 157.370 163.155  0.00  0.00    +0.236 C 
ATOM      9  N   LIG    1      164.318 157.804 161.877  0.00  0.00    -0.258 N 
ATOM     10  C   LIG    1      163.332 156.994 161.132  0.00  0.00    +0.323 C 
ENDROOT
BRANCH   1  11
ATOM     11  C   LIG    1      161.674 158.345 159.755  0.00  0.00    +0.034 A 
ATOM     12  C   LIG    1      161.053 159.075 160.784  0.00  0.00    +0.060 A 
ATOM     13  C   LIG    1      159.738 159.480 160.613  0.00  0.00    +0.167 A 
ATOM     14  O   LIG    1      158.985 160.181 161.486  0.00  0.00    -0.453 OA
ATOM     15  C   LIG    1      157.666 160.372 160.831  0.00  0.00    +0.466 C 
ATOM     16  O   LIG    1      157.784 159.685 159.521  0.00  0.00    -0.453 OA
ATOM     17  C   LIG    1      159.039 159.193 159.469  0.00  0.00    +0.166 A 
ATOM     18  C   LIG    1      159.621 158.483 158.432  0.00  0.00    +0.050 A 
ATOM     19  C   LIG    1      160.944 158.063 158.579  0.00  0.00    +0.014 A 
ENDBRANCH   1  11
BRANCH   2  20
ATOM     20  C   LIG    1      164.246 160.007 159.138  0.00  0.00    +0.124 A 
ATOM     21  C   LIG    1      163.548 161.205 159.275  0.00  0.00    +0.050 A 
ATOM     22  C   LIG    1      163.750 162.217 158.341  0.00  0.00    +0.024 A 
ATOM     23  C   LIG    1      164.644 162.021 157.283  0.00  0.00    +0.041 A 
ATOM     24 CL   LIG    1      164.893 163.280 156.124  0.00  0.00    -0.084 Cl
ATOM     25  C   LIG    1      165.336 160.812 157.156  0.00  0.00    +0.024 A 
ATOM     26  C   LIG    1      165.137 159.796 158.087  0.00  0.00    +0.050 A 
ENDBRANCH   2  20
BRANCH   1  27
ATOM     27  O   LIG    1      163.582 157.209 158.706  0.00  0.00    -0.347 OA
ATOM     28  H   LIG    1      164.444 156.813 158.905  0.00  0.00    +0.215 HD
ENDBRANCH   1  27
TORSDOF 3
ENDMDL
