REMARK VINA RESULT:     -10.3     51.998     55.371
REMARK  Name = 
REMARK                            x       y       z     vdW  Elec       q    Type
REMARK                         _______ _______ _______ _____ _____    ______ ____
ROOT
ATOM      1  C   LIG    1      168.541 114.611 128.228  0.00  0.00    +0.046 C 
ATOM      2  C   LIG    1      168.385 115.397 128.444  0.00  0.00    +0.024 C 
ATOM      3  C   LIG    1      169.695 115.742 128.259  0.00  0.00    +0.072 C 
ATOM      4  N   LIG    1      169.915 114.953 128.028  0.00  0.00    -0.274 NA
ATOM      5  C   LIG    1      170.681 114.731 127.820  0.00  0.00    +0.098 C 
ATOM      6  C   LIG    1      170.832 113.949 127.605  0.00  0.00    -0.013 C 
ATOM      7  C   LIG    1      170.223 113.394 127.598  0.00  0.00    -0.025 C 
ATOM      8  C   LIG    1      169.464 113.617 127.806  0.00  0.00    +0.067 C 
ATOM      9  C   LIG    1      168.849 113.052 127.798  0.00  0.00    +0.212 C 
ATOM     10  C   LIG    1      168.086 113.275 128.006  0.00  0.00    +0.263 C 
ATOM     11  O   LIG    1      168.244 112.499 127.791  0.00  0.00    -0.209 OA
ATOM     12  C   LIG    1      169.303 114.393 128.021  0.00  0.00    +0.087 C 
ATOM     13  C   LIG    1      167.925 114.051 128.221  0.00  0.00    +0.145 C 
ATOM     14  N   LIG    1      167.159 114.272 128.430  0.00  0.00    -0.255 N 
ATOM     15  C   LIG    1      166.550 113.717 128.423  0.00  0.00    +0.307 C 
ATOM     16  O   LIG    1      165.782 113.946 128.634  0.00  0.00    -0.265 OA
ATOM     17  C   LIG    1      167.008 115.055 128.645  0.00  0.00    +0.053 A 
ATOM     18  C   LIG    1      166.246 115.240 128.844  0.00  0.00    +0.051 A 
ATOM     19  C   LIG    1      166.067 116.019 129.063  0.00  0.00    +0.137 A 
ATOM     20  C   LIG    1      166.655 116.589 129.078  0.00  0.00    +0.026 A 
ATOM     21  C   LIG    1      167.428 116.395 128.874  0.00  0.00    -0.003 A 
ATOM     22  C   LIG    1      167.616 115.614 128.652  0.00  0.00    -0.007 A 
ENDROOT
BRANCH  20  23
ATOM     23  C   LIG    1      166.201 118.530 129.627  0.00  0.00    +0.146 C 
ATOM     24  C   LIG    1      166.393 118.335 130.411  0.00  0.00    +0.022 C 
ATOM     25  C   LIG    1      166.630 117.549 130.485  0.00  0.00    +0.020 C 
ATOM     26  C   LIG    1      166.864 117.150 131.174  0.00  0.00    +0.033 C 
ATOM     27  C   LIG    1      166.919 117.430 131.941  0.00  0.00    +0.141 C 
ATOM     28  O   LIG    1      167.156 117.210 132.934  0.00  0.00    -0.224 OA
ATOM     29  C   LIG    1      166.753 118.187 132.223  0.00  0.00    +0.103 C 
ATOM     30  N   LIG    1      166.491 118.849 131.801  0.00  0.00    -0.270 NA
ATOM     31  C   LIG    1      166.332 118.916 130.999  0.00  0.00    +0.077 C 
ATOM     32  C   LIG    1      166.081 119.681 130.809  0.00  0.00    +0.045 C 
ATOM     33  C   LIG    1      165.891 119.869 130.029  0.00  0.00    -0.005 A 
ATOM     34  C   LIG    1      165.451 120.824 129.068  0.00  0.00    +0.015 A 
ATOM     35  C   LIG    1      165.510 120.252 128.476  0.00  0.00    +0.081 A 
ATOM     36  C   LIG    1      165.321 120.433 127.695  0.00  0.00    +0.019 A 
ATOM     37  C   LIG    1      165.071 121.199 127.506  0.00  0.00    +0.002 A 
ATOM     38  C   LIG    1      165.012 121.771 128.098  0.00  0.00    +0.000 A 
ATOM     39  N   LIG    1      165.761 119.484 128.662  0.00  0.00    -0.249 NA
ATOM     40  C   LIG    1      165.201 121.586 128.875  0.00  0.00    +0.001 A 
ATOM     41  C   LIG    1      166.681 117.963 131.449  0.00  0.00    +0.072 C 
ATOM     42  C   LIG    1      165.950 119.297 129.438  0.00  0.00    +0.068 A 
BRANCH  23  43
ATOM     43  C   LIG    1      166.090 118.220 128.494  0.00  0.00    +0.325 C 
ATOM     44  O   LIG    1      165.370 117.950 128.214  0.00  0.00    -0.249 OA
BRANCH  43  45
ATOM     45  O   LIG    1      166.736 118.274 127.990  0.00  0.00    -0.444 OA
ATOM     46  C   LIG    1      166.620 118.287 127.178  0.00  0.00    +0.256 C 
ENDBRANCH  43  45
ENDBRANCH  23  43
BRANCH  27  47
ATOM     47  C   LIG    1      167.140 116.638 131.921  0.00  0.00    +0.032 C 
ATOM     48  C   LIG    1      167.215 116.040 132.484  0.00  0.00    +0.003 C 
ENDBRANCH  27  47
ENDBRANCH  20  23
BRANCH  10  49
ATOM     49  C   LIG    1      167.143 112.426 127.999  0.00  0.00    +0.350 C 
ATOM     50  O   LIG    1      166.910 112.049 128.609  0.00  0.00    -0.247 OA
BRANCH  49  51
ATOM     51  O   LIG    1      166.751 112.268 127.281  0.00  0.00    -0.443 OA
ATOM     52  C   LIG    1      166.173 111.758 127.296  0.00  0.00    +0.256 C 
ENDBRANCH  49  51
ENDBRANCH  10  49
BRANCH   8  53
ATOM     53  C   LIG    1      169.617 112.839 127.591  0.00  0.00    +0.009 C 
ATOM     54  C   LIG    1      170.167 112.687 126.994  0.00  0.00    +0.000 C 
ENDBRANCH   8  53
BRANCH  19  55
ATOM     55  O   LIG    1      165.277 116.250 129.279  0.00  0.00    -0.472 OA
ATOM     56  C   LIG    1      164.591 115.577 129.392  0.00  0.00    +0.252 C 
ENDBRANCH  19  55
BRANCH   9  57
ATOM     57  O   LIG    1      169.007 112.276 127.583  0.00  0.00    -0.449 OA
BRANCH  57  58
ATOM     58  C   LIG    1      169.207 111.829 128.049  0.00  0.00    +0.318 C 
ATOM     59  C   LIG    1      169.409 111.212 127.862  0.00  0.00    +0.121 C 
ATOM     60  O   LIG    1      169.204 112.003 128.701  0.00  0.00    -0.250 OA
ENDBRANCH  57  58
ENDBRANCH   9  57
TORSDOF 10
