REMARK VINA RESULT:      -6.0     39.552     43.502
REMARK  Name = ZINC000049409419
REMARK                            x       y       z     vdW  Elec       q    Type
REMARK                         _______ _______ _______ _____ _____    ______ ____
ROOT
ATOM      1  N   LIG    1      198.488 116.635 143.839  0.00  0.00    -0.282 N 
ATOM      2  H   LIG    1      198.052 117.449 144.304  0.00  0.00    +0.155 HD
ATOM      3  C   LIG    1      197.789 116.106 142.782  0.00  0.00    +0.226 C 
ATOM      4  O   LIG    1      198.283 115.264 142.064  0.00  0.00    -0.275 OA
ENDROOT
BRANCH   1   9
ATOM      5  C   LIG    1      202.395 115.897 145.216  0.00  0.00    +0.142 A 
ATOM      6  C   LIG    1      201.387 114.967 145.525  0.00  0.00    +0.084 A 
ATOM      7 CL   LIG    1      201.739 113.546 146.453  0.00  0.00    -0.080 Cl
ATOM      8  C   LIG    1      200.081 115.182 145.084  0.00  0.00    +0.050 A 
ATOM      9  C   LIG    1      199.789 116.324 144.333  0.00  0.00    +0.077 A 
ATOM     10  C   LIG    1      200.798 117.256 144.039  0.00  0.00    +0.145 A 
ATOM     11  C   LIG    1      202.105 117.045 144.476  0.00  0.00    +0.094 A 
BRANCH   5  13
ATOM     12  C   LIG    1      204.809 116.553 145.579  0.00  0.00    +0.277 C 
ATOM     13  O   LIG    1      203.687 115.649 145.671  0.00  0.00    -0.494 OA
ENDBRANCH   5  13
BRANCH  10  14
ATOM     14  O   LIG    1      200.448 118.394 143.308  0.00  0.00    -0.493 OA
ATOM     15  C   LIG    1      200.811 118.648 141.932  0.00  0.00    +0.277 C 
ENDBRANCH  10  14
ENDBRANCH   1   9
BRANCH   3  16
ATOM     16  C   LIG    1      196.399 116.632 142.541  0.00  0.00    +0.193 C 
BRANCH  16  17
ATOM     17  C   LIG    1      196.341 117.927 143.304  0.00  0.00    +0.226 A 
ATOM     18  O   LIG    1      195.838 117.974 144.504  0.00  0.00    -0.419 OA
ATOM     19  C   LIG    1      195.925 119.233 144.877  0.00  0.00    +0.255 A 
ATOM     20  N   LIG    1      196.464 119.939 143.933  0.00  0.00    -0.107 NA
ATOM     21  N   LIG    1      196.732 119.078 142.908  0.00  0.00    -0.112 NA
BRANCH  19  22
ATOM     22  C   LIG    1      195.449 119.647 146.189  0.00  0.00    +0.079 A 
ATOM     23  C   LIG    1      194.159 119.933 146.600  0.00  0.00    -0.031 A 
ATOM     24  C   LIG    1      192.938 119.861 145.706  0.00  0.00    +0.045 C 
ATOM     25  C   LIG    1      194.086 120.305 147.951  0.00  0.00    +0.012 A 
ATOM     26  C   LIG    1      195.301 120.306 148.574  0.00  0.00    +0.046 A 
ATOM     27  S   LIG    1      196.568 119.846 147.503  0.00  0.00    -0.092 S 
ENDBRANCH  19  22
ENDBRANCH  16  17
ENDBRANCH   3  16
TORSDOF 6
