REMARK VINA RESULT:      -6.4      5.277      7.610
REMARK  Name = 
REMARK                            x       y       z     vdW  Elec       q    Type
REMARK                         _______ _______ _______ _____ _____    ______ ____
ROOT
ATOM      1  O   LIG    1      169.197 144.804 146.723  0.00  0.00    -0.346 OA
ENDROOT
BRANCH   1   7
ATOM      2  C   LIG    1      171.092 150.168 146.018  0.00  0.00    +0.398 A 
ATOM      3  N   LIG    1      170.968 149.454 144.862  0.00  0.00    -0.128 NA
ATOM      4  C   LIG    1      170.679 148.186 145.127  0.00  0.00    +0.306 A 
ATOM      5  O   LIG    1      170.458 147.076 144.300  0.00  0.00    -0.445 OA
ATOM      6  C   LIG    1      170.241 145.819 144.913  0.00  0.00    +0.240 C 
ATOM      7  C   LIG    1      169.109 146.207 146.100  0.00  0.00    +0.182 C 
ATOM      8  C   LIG    1      170.311 146.798 147.121  0.00  0.00    +0.144 C 
ATOM      9  N   LIG    1      170.612 148.064 146.460  0.00  0.00    -0.272 N 
ATOM     10  C   LIG    1      170.861 149.262 147.015  0.00  0.00    +0.178 A 
BRANCH   2  12
ATOM     11  O   LIG    1      171.998 151.872 146.613  0.00  0.00    +0.043 OA
ATOM     12  N   LIG    1      171.398 151.565 146.132  0.00  0.00    +0.103 N 
ATOM     13  O   LIG    1      170.595 152.409 145.356  0.00  0.00    -0.575 OA
ENDBRANCH   2  12
ENDBRANCH   1   7
BRANCH   1  14
ATOM     14  C   LIG    1      170.554 144.703 147.035  0.00  0.00    +0.169 C 
BRANCH  14  15
ATOM     15  C   LIG    1      170.794 143.523 147.929  0.00  0.00    +0.007 A 
ATOM     16  C   LIG    1      171.882 142.693 147.734  0.00  0.00    +0.001 A 
ATOM     17  C   LIG    1      172.142 141.603 148.524  0.00  0.00    +0.037 A 
ATOM     18  C   LIG    1      171.272 141.315 149.576  0.00  0.00    +0.147 A 
ATOM     19  C   LIG    1      170.185 142.118 149.797  0.00  0.00    +0.037 A 
ATOM     20  C   LIG    1      169.953 143.210 148.977  0.00  0.00    +0.001 A 
BRANCH  18  21
ATOM     21  O   LIG    1      171.540 140.206 150.379  0.00  0.00    -0.404 OA
BRANCH  21  22
ATOM     22  C   LIG    1      172.199 140.424 151.628  0.00  0.00    +0.575 C 
ATOM     23  F   LIG    1      171.250 140.516 152.627  0.00  0.00    -0.133 F 
ATOM     24  F   LIG    1      172.901 141.624 151.595  0.00  0.00    -0.133 F 
ATOM     25  F   LIG    1      173.044 139.352 151.861  0.00  0.00    -0.133 F 
ENDBRANCH  21  22
ENDBRANCH  18  21
ENDBRANCH  14  15
ENDBRANCH   1  14
TORSDOF 6
