REMARK VINA RESULT:     -10.2     25.920     28.309
REMARK  Name = 
REMARK                            x       y       z     vdW  Elec       q    Type
REMARK                         _______ _______ _______ _____ _____    ______ ____
ROOT
ATOM      1  C   LIG    1      167.413 136.158 162.587  0.00  0.00    +0.046 C 
ATOM      2  C   LIG    1      168.232 136.112 162.710  0.00  0.00    +0.024 C 
ATOM      3  C   LIG    1      168.439 137.247 161.977  0.00  0.00    +0.072 C 
ATOM      4  N   LIG    1      167.609 137.347 161.817  0.00  0.00    -0.274 NA
ATOM      5  C   LIG    1      167.298 137.965 161.370  0.00  0.00    +0.098 C 
ATOM      6  C   LIG    1      166.483 138.008 161.250  0.00  0.00    -0.013 C 
ATOM      7  C   LIG    1      165.983 137.438 161.573  0.00  0.00    -0.025 C 
ATOM      8  C   LIG    1      166.295 136.825 162.016  0.00  0.00    +0.067 C 
ATOM      9  C   LIG    1      165.787 136.249 162.343  0.00  0.00    +0.212 C 
ATOM     10  C   LIG    1      166.098 135.633 162.788  0.00  0.00    +0.263 C 
ATOM     11  O   LIG    1      165.289 135.682 162.664  0.00  0.00    -0.209 OA
ATOM     12  C   LIG    1      167.105 136.773 162.142  0.00  0.00    +0.087 C 
ATOM     13  C   LIG    1      166.908 135.581 162.914  0.00  0.00    +0.145 C 
ATOM     14  N   LIG    1      167.219 134.962 163.361  0.00  0.00    -0.255 N 
ATOM     15  C   LIG    1      166.720 134.392 163.684  0.00  0.00    +0.307 C 
ATOM     16  O   LIG    1      167.039 133.772 164.133  0.00  0.00    -0.265 OA
ATOM     17  C   LIG    1      168.035 134.920 163.481  0.00  0.00    +0.053 A 
ATOM     18  C   LIG    1      168.308 134.300 163.925  0.00  0.00    +0.051 A 
ATOM     19  C   LIG    1      169.123 134.234 164.061  0.00  0.00    +0.137 A 
ATOM     20  C   LIG    1      169.640 134.789 163.750  0.00  0.00    +0.026 A 
ATOM     21  C   LIG    1      169.356 135.416 163.300  0.00  0.00    -0.003 A 
ATOM     22  C   LIG    1      168.539 135.490 163.158  0.00  0.00    -0.007 A 
ENDROOT
BRANCH  20  23
ATOM     23  C   LIG    1      171.672 134.616 164.094  0.00  0.00    +0.146 C 
ATOM     24  C   LIG    1      171.739 134.195 163.382  0.00  0.00    +0.022 C 
ATOM     25  C   LIG    1      171.013 134.110 163.002  0.00  0.00    +0.020 C 
ATOM     26  C   LIG    1      170.854 133.726 162.284  0.00  0.00    +0.033 C 
ATOM     27  C   LIG    1      171.370 133.342 161.777  0.00  0.00    +0.141 C 
ATOM     28  O   LIG    1      171.481 132.810 160.886  0.00  0.00    -0.224 OA
ATOM     29  C   LIG    1      172.184 133.239 161.857  0.00  0.00    +0.103 C 
ATOM     30  N   LIG    1      172.680 133.498 162.467  0.00  0.00    -0.270 NA
ATOM     31  C   LIG    1      172.484 133.921 163.142  0.00  0.00    +0.077 C 
ATOM     32  C   LIG    1      173.153 134.066 163.606  0.00  0.00    +0.045 C 
ATOM     33  C   LIG    1      173.080 134.484 164.313  0.00  0.00    -0.005 A 
ATOM     34  C   LIG    1      173.681 135.043 165.478  0.00  0.00    +0.015 A 
ATOM     35  C   LIG    1      172.944 135.318 165.724  0.00  0.00    +0.081 A 
ATOM     36  C   LIG    1      172.864 135.737 166.429  0.00  0.00    +0.019 A 
ATOM     37  C   LIG    1      173.534 135.881 166.892  0.00  0.00    +0.002 A 
ATOM     38  C   LIG    1      174.272 135.605 166.647  0.00  0.00    +0.000 A 
ATOM     39  N   LIG    1      172.270 135.176 165.261  0.00  0.00    -0.249 NA
ATOM     40  C   LIG    1      174.347 135.188 165.943  0.00  0.00    +0.001 A 
ATOM     41  C   LIG    1      171.719 133.630 162.391  0.00  0.00    +0.072 C 
ATOM     42  C   LIG    1      172.342 134.760 164.559  0.00  0.00    +0.068 A 
BRANCH  23  43
ATOM     43  C   LIG    1      171.008 135.189 164.883  0.00  0.00    +0.325 C 
ATOM     44  O   LIG    1      170.698 134.787 165.525  0.00  0.00    -0.249 OA
BRANCH  43  45
ATOM     45  O   LIG    1      170.860 135.991 164.787  0.00  0.00    -0.444 OA
ATOM     46  C   LIG    1      170.626 136.443 165.430  0.00  0.00    +0.256 C 
ENDBRANCH  43  45
ENDBRANCH  23  43
BRANCH  27  47
ATOM     47  C   LIG    1      170.608 133.306 161.472  0.00  0.00    +0.032 C 
ATOM     48  C   LIG    1      170.262 132.965 160.804  0.00  0.00    +0.003 C 
ENDBRANCH  27  47
ENDBRANCH  20  23
BRANCH  10  49
ATOM     49  C   LIG    1      165.337 134.751 163.289  0.00  0.00    +0.350 C 
ATOM     50  O   LIG    1      165.083 134.767 164.000  0.00  0.00    -0.247 OA
BRANCH  49  51
ATOM     51  O   LIG    1      165.095 134.111 162.813  0.00  0.00    -0.443 OA
ATOM     52  C   LIG    1      164.663 133.565 163.143  0.00  0.00    +0.256 C 
ENDBRANCH  49  51
ENDBRANCH  10  49
BRANCH   8  53
ATOM     53  C   LIG    1      165.484 136.870 161.895  0.00  0.00    +0.009 C 
ATOM     54  C   LIG    1      165.200 137.132 161.164  0.00  0.00    +0.000 C 
ENDBRANCH   8  53
BRANCH  19  55
ATOM     55  O   LIG    1      169.447 133.596 164.522  0.00  0.00    -0.472 OA
ATOM     56  C   LIG    1      168.906 132.818 164.714  0.00  0.00    +0.252 C 
ENDBRANCH  19  55
BRANCH   9  57
ATOM     57  O   LIG    1      164.977 136.298 162.218  0.00  0.00    -0.449 OA
BRANCH  57  58
ATOM     58  C   LIG    1      164.589 136.655 162.641  0.00  0.00    +0.318 C 
ATOM     59  C   LIG    1      163.939 136.764 162.497  0.00  0.00    +0.121 C 
ATOM     60  O   LIG    1      164.857 136.903 163.209  0.00  0.00    -0.250 OA
ENDBRANCH  57  58
ENDBRANCH   9  57
TORSDOF 10
