REMARK VINA RESULT:      -7.2      4.294      8.542
REMARK  Name = ZINC000049483826
REMARK                            x       y       z     vdW  Elec       q    Type
REMARK                         _______ _______ _______ _____ _____    ______ ____
ROOT
ATOM      1  N   LIG    1      169.160 145.557 146.145  0.00  0.00    -0.175 NA
ATOM      2  C   LIG    1      170.207 144.548 145.949  0.00  0.00    +0.123 C 
ATOM      3  C   LIG    1      169.236 143.547 146.624  0.00  0.00    +0.109 C 
ATOM      4  C   LIG    1      168.463 144.776 147.171  0.00  0.00    +0.123 C 
ENDROOT
BRANCH   3   5
ATOM      5  C   LIG    1      169.895 142.739 147.715  0.00  0.00    +0.233 A 
ATOM      6  O   LIG    1      169.850 141.425 147.661  0.00  0.00    -0.337 OA
ATOM      7  N   LIG    1      170.487 140.952 148.709  0.00  0.00    -0.056 NA
ATOM      8  C   LIG    1      170.897 141.989 149.358  0.00  0.00    +0.209 A 
ATOM      9  N   LIG    1      170.529 143.140 148.740  0.00  0.00    -0.191 NA
BRANCH   8  10
ATOM     10  C   LIG    1      171.657 141.929 150.599  0.00  0.00    +0.060 A 
ATOM     11  S   LIG    1      173.215 141.161 150.685  0.00  0.00    -0.093 S 
ATOM     12  C   LIG    1      173.357 141.531 152.364  0.00  0.00    +0.046 A 
ATOM     13  C   LIG    1      172.265 142.208 152.828  0.00  0.00    +0.008 A 
ATOM     14  C   LIG    1      171.304 142.433 151.831  0.00  0.00    +0.019 A 
ENDBRANCH   8  10
ENDBRANCH   3   5
BRANCH   1  15
ATOM     15  S   LIG    1      168.383 146.270 144.885  0.00  0.00    +0.061 S 
ATOM     16  O   LIG    1      168.858 145.705 143.671  0.00  0.00    -0.153 OA
ATOM     17  O   LIG    1      166.984 146.168 145.123  0.00  0.00    -0.153 OA
BRANCH  15  20
ATOM     18  C   LIG    1      171.323 147.481 144.487  0.00  0.00    +0.046 C 
ATOM     19  C   LIG    1      170.193 148.454 144.782  0.00  0.00    -0.024 A 
ATOM     20  C   LIG    1      168.866 148.018 144.970  0.00  0.00    +0.110 A 
ATOM     21  C   LIG    1      167.874 148.970 145.231  0.00  0.00    +0.048 A 
ATOM     22  C   LIG    1      168.188 150.324 145.310  0.00  0.00    +0.043 A 
ATOM     23 CL   LIG    1      166.944 151.481 145.643  0.00  0.00    -0.083 Cl
ATOM     24  C   LIG    1      169.500 150.749 145.124  0.00  0.00    +0.020 A 
ATOM     25  C   LIG    1      170.494 149.816 144.860  0.00  0.00    +0.007 A 
ENDBRANCH  15  20
ENDBRANCH   1  15
TORSDOF 4
