REMARK VINA RESULT:      -7.8      6.250      9.070
REMARK  Name = ZINC000006083766
REMARK                            x       y       z     vdW  Elec       q    Type
REMARK                         _______ _______ _______ _____ _____    ______ ____
ROOT
ATOM      1  O   LIG    1      166.532 143.807 147.249  0.00  0.00    -0.468 OA
ENDROOT
BRANCH   1   2
ATOM      2  C   LIG    1      167.383 144.516 146.466  0.00  0.00    +0.227 A 
ATOM      3  C   LIG    1      168.766 144.277 146.542  0.00  0.00    +0.073 A 
ATOM      4  C   LIG    1      169.540 143.378 147.331  0.00  0.00    -0.023 A 
ATOM      5  C   LIG    1      168.964 142.403 148.348  0.00  0.00    +0.037 C 
ATOM      6  C   LIG    1      170.060 141.389 148.727  0.00  0.00    +0.005 C 
ATOM      7  C   LIG    1      171.399 142.083 149.030  0.00  0.00    +0.005 C 
ATOM      8  C   LIG    1      171.990 142.719 147.760  0.00  0.00    +0.043 C 
ATOM      9  C   LIG    1      170.879 143.510 147.101  0.00  0.00    -0.004 A 
ATOM     10  S   LIG    1      171.237 144.711 145.900  0.00  0.00    -0.073 S 
ATOM     11  C   LIG    1      169.554 145.060 145.714  0.00  0.00    +0.116 A 
ATOM     12  N   LIG    1      169.035 145.988 144.874  0.00  0.00    -0.228 NA
ATOM     13  C   LIG    1      167.732 146.134 144.871  0.00  0.00    +0.226 A 
ATOM     14  N   LIG    1      166.878 145.418 145.652  0.00  0.00    -0.201 NA
ENDBRANCH   1   2
BRANCH   1  15
ATOM     15  C   LIG    1      165.401 144.418 147.935  0.00  0.00    +0.310 C 
BRANCH  15  17
ATOM     16  O   LIG    1      164.080 143.035 149.338  0.00  0.00    -0.288 OA
ATOM     17  C   LIG    1      165.127 143.643 149.220  0.00  0.00    +0.200 C 
BRANCH  17  18
ATOM     18  C   LIG    1      166.135 143.592 150.280  0.00  0.00    +0.025 A 
ATOM     19  C   LIG    1      166.310 142.444 151.078  0.00  0.00    +0.061 A 
ATOM     20  C   LIG    1      167.276 142.433 152.072  0.00  0.00    +0.163 A 
ATOM     21  O   LIG    1      167.455 141.294 152.828  0.00  0.00    -0.485 OA
ATOM     22  C   LIG    1      168.689 141.172 153.601  0.00  0.00    +0.270 C 
ATOM     23  C   LIG    1      168.890 142.505 154.340  0.00  0.00    +0.270 C 
ATOM     24  O   LIG    1      168.999 143.544 153.321  0.00  0.00    -0.485 OA
ATOM     25  C   LIG    1      168.071 143.559 152.308  0.00  0.00    +0.162 A 
ATOM     26  C   LIG    1      167.921 144.698 151.527  0.00  0.00    +0.050 A 
ATOM     27  C   LIG    1      166.958 144.713 150.521  0.00  0.00    +0.015 A 
ENDBRANCH  17  18
ENDBRANCH  15  17
ENDBRANCH   1  15
TORSDOF 4
