REMARK VINA RESULT:      -7.7      1.660      2.006
REMARK  Name = ZINC000049408611
REMARK                            x       y       z     vdW  Elec       q    Type
REMARK                         _______ _______ _______ _____ _____    ______ ____
ROOT
ATOM      1  N   LIG    1      169.912 147.172 145.645  0.00  0.00    -0.199 N 
ENDROOT
BRANCH   1   2
ATOM      2  C   LIG    1      169.910 148.570 145.497  0.00  0.00    +0.053 A 
ATOM      3  C   LIG    1      168.962 149.388 146.118  0.00  0.00    +0.044 A 
ATOM      4  C   LIG    1      169.033 150.767 145.940  0.00  0.00    +0.043 A 
ATOM      5 CL   LIG    1      167.868 151.793 146.706  0.00  0.00    -0.083 Cl
ATOM      6  C   LIG    1      170.041 151.329 145.152  0.00  0.00    +0.020 A 
ATOM      7  C   LIG    1      170.979 150.506 144.536  0.00  0.00    +0.003 A 
ATOM      8  C   LIG    1      170.916 149.126 144.703  0.00  0.00    +0.025 A 
ENDBRANCH   1   2
BRANCH   1  10
ATOM      9  O   LIG    1      169.981 145.714 143.607  0.00  0.00    -0.150 OA
ATOM     10  S   LIG    1      169.057 146.392 144.445  0.00  0.00    +0.076 S 
ATOM     11  O   LIG    1      168.198 147.329 143.814  0.00  0.00    -0.150 OA
BRANCH  10  12
ATOM     12  C   LIG    1      168.058 145.159 145.313  0.00  0.00    +0.125 A 
ATOM     13  C   LIG    1      167.130 145.542 146.248  0.00  0.00    +0.123 A 
ATOM     14  N   LIG    1      166.376 144.558 146.892  0.00  0.00    -0.287 N 
ATOM     15  C   LIG    1      165.421 144.680 147.810  0.00  0.00    +0.229 A 
ATOM     16  N   LIG    1      164.973 143.503 148.127  0.00  0.00    -0.137 NA
ATOM     17  N   LIG    1      165.663 142.578 147.395  0.00  0.00    -0.130 NA
ATOM     18  C   LIG    1      166.516 143.239 146.647  0.00  0.00    +0.161 A 
ATOM     19  C   LIG    1      167.491 142.824 145.693  0.00  0.00    +0.050 A 
ATOM     20  C   LIG    1      168.247 143.758 145.043  0.00  0.00    +0.034 A 
ENDBRANCH  10  12
ENDBRANCH   1  10
BRANCH   1  21
ATOM     21  C   LIG    1      171.237 146.539 145.697  0.00  0.00    +0.166 C 
BRANCH  21  22
ATOM     22  C   LIG    1      171.099 145.388 146.676  0.00  0.00    -0.028 A 
ATOM     23  C   LIG    1      171.674 144.146 146.402  0.00  0.00    +0.005 A 
ATOM     24  C   LIG    1      171.549 143.099 147.310  0.00  0.00    +0.000 A 
ATOM     25  C   LIG    1      170.848 143.285 148.497  0.00  0.00    +0.000 A 
ATOM     26  C   LIG    1      170.273 144.521 148.776  0.00  0.00    +0.000 A 
ATOM     27  C   LIG    1      170.400 145.569 147.870  0.00  0.00    +0.005 A 
ENDBRANCH  21  22
ENDBRANCH   1  21
TORSDOF 5
