REMARK VINA RESULT:      -7.4     39.357     42.543
REMARK  Name = 
REMARK                            x       y       z     vdW  Elec       q    Type
REMARK                         _______ _______ _______ _____ _____    ______ ____
ROOT
ATOM      1  C   LIG    1      199.412 116.995 146.782  0.00  0.00    +0.035 A 
ATOM      2  C   LIG    1      198.220 117.423 146.244  0.00  0.00    +0.007 A 
ATOM      3  C   LIG    1      197.563 118.523 146.787  0.00  0.00    +0.051 A 
ATOM      4  C   LIG    1      198.062 119.224 147.864  0.00  0.00    +0.086 A 
ATOM      5  N   LIG    1      197.433 120.295 148.401  0.00  0.00    -0.224 NA
ATOM      6  C   LIG    1      196.276 120.675 147.844  0.00  0.00    +0.200 A 
ATOM      7  N   LIG    1      195.763 120.007 146.787  0.00  0.00    -0.207 NA
ATOM      8  C   LIG    1      199.267 118.771 148.386  0.00  0.00    +0.019 A 
ATOM      9  C   LIG    1      196.355 118.953 146.239  0.00  0.00    +0.155 A 
ATOM     10  C   LIG    1      199.925 117.683 147.859  0.00  0.00    +0.005 A 
ENDROOT
BRANCH   1  13
ATOM     11  C   LIG    1      201.229 114.014 145.952  0.00  0.00    +0.140 A 
ATOM     12  O   LIG    1      200.751 114.901 146.777  0.00  0.00    -0.456 OA
ATOM     13  C   LIG    1      200.087 115.841 146.203  0.00  0.00    +0.145 A 
ATOM     14  C   LIG    1      200.110 115.573 144.837  0.00  0.00    +0.040 A 
ATOM     15  C   LIG    1      200.834 114.417 144.684  0.00  0.00    +0.038 A 
BRANCH  11  16
ATOM     16  C   LIG    1      202.045 112.791 146.259  0.00  0.00    +0.153 C 
BRANCH  16  17
ATOM     17  N   LIG    1      203.222 113.171 147.032  0.00  0.00    -0.208 NA
BRANCH  17  18
ATOM     18  C   LIG    1      204.369 113.125 146.152  0.00  0.00    +0.114 C 
BRANCH  18  19
ATOM     19  C   LIG    1      205.240 114.344 146.277  0.00  0.00    +0.170 C 
BRANCH  19  21
ATOM     20  C   LIG    1      204.357 114.840 143.573  0.00  0.00    +0.176 C 
ATOM     21  S   LIG    1      204.803 115.597 145.097  0.00  0.00    -0.007 S 
ATOM     22  O   LIG    1      206.037 116.431 144.851  0.00  0.00    -0.173 OA
ATOM     23  O   LIG    1      203.671 116.456 145.600  0.00  0.00    -0.173 OA
ENDBRANCH  19  21
ENDBRANCH  18  19
ENDBRANCH  17  18
ENDBRANCH  16  17
ENDBRANCH  11  16
ENDBRANCH   1  13
BRANCH   9  24
ATOM     24  N   LIG    1      195.858 118.228 145.143  0.00  0.00    -0.194 NA
BRANCH  24  25
ATOM     25  C   LIG    1      195.726 118.806 143.881  0.00  0.00    +0.073 A 
ATOM     26  C   LIG    1      196.794 119.419 143.220  0.00  0.00    +0.031 A 
ATOM     27  C   LIG    1      196.602 119.964 141.986  0.00  0.00    +0.093 A 
ATOM     28 CL   LIG    1      197.917 120.762 141.104  0.00  0.00    -0.079 Cl
ATOM     29  C   LIG    1      195.376 119.938 141.350  0.00  0.00    +0.150 A 
ATOM     30  C   LIG    1      194.315 119.337 141.992  0.00  0.00    +0.039 A 
ATOM     31  C   LIG    1      194.512 118.788 143.233  0.00  0.00    +0.020 A 
BRANCH  29  32
ATOM     32  O   LIG    1      195.221 120.513 140.076  0.00  0.00    -0.470 OA
BRANCH  32  33
ATOM     33  C   LIG    1      194.497 121.735 139.995  0.00  0.00    +0.232 C 
BRANCH  33  34
ATOM     34  C   LIG    1      195.491 122.818 139.817  0.00  0.00    +0.023 A 
ATOM     35  C   LIG    1      196.141 123.033 138.620  0.00  0.00    +0.029 A 
ATOM     36  C   LIG    1      197.069 124.075 138.518  0.00  0.00    +0.140 A 
ATOM     37  F   LIG    1      197.734 124.329 137.360  0.00  0.00    -0.204 F 
ATOM     38  C   LIG    1      197.335 124.881 139.599  0.00  0.00    +0.030 A 
ATOM     39  C   LIG    1      196.694 124.672 140.782  0.00  0.00    +0.002 A 
ATOM     40  C   LIG    1      195.777 123.640 140.881  0.00  0.00    -0.001 A 
ENDBRANCH  33  34
ENDBRANCH  32  33
ENDBRANCH  29  32
ENDBRANCH  24  25
ENDBRANCH   9  24
TORSDOF 11
