REMARK VINA RESULT:      -7.0      0.000      0.000
REMARK  Name = ZINC000049483930
REMARK                            x       y       z     vdW  Elec       q    Type
REMARK                         _______ _______ _______ _____ _____    ______ ____
ROOT
ATOM      1  O   LIG    1      194.301  78.730 159.056  0.00  0.00    -0.275 OA
ATOM      2  C   LIG    1      193.794  78.994 160.127  0.00  0.00    +0.226 C 
ATOM      3  N   LIG    1      194.307  80.031 160.844  0.00  0.00    -0.299 N 
ATOM      4  C   LIG    1      193.901  80.669 162.097  0.00  0.00    +0.122 C 
ATOM      5  C   LIG    1      195.095  81.647 161.861  0.00  0.00    +0.112 C 
ATOM      6  C   LIG    1      195.377  80.963 160.489  0.00  0.00    +0.122 C 
ENDROOT
BRANCH   5   7
ATOM      7  C   LIG    1      196.223  81.415 162.842  0.00  0.00    +0.234 A 
ATOM      8  O   LIG    1      196.195  80.399 163.682  0.00  0.00    -0.337 OA
ATOM      9  N   LIG    1      197.292  80.437 164.406  0.00  0.00    -0.056 NA
ATOM     10  C   LIG    1      197.944  81.466 163.983  0.00  0.00    +0.209 A 
ATOM     11  N   LIG    1      197.278  82.105 162.987  0.00  0.00    -0.191 NA
BRANCH  10  12
ATOM     12  C   LIG    1      199.238  81.886 164.506  0.00  0.00    +0.060 A 
ATOM     13  S   LIG    1      199.749  81.483 166.119  0.00  0.00    -0.093 S 
ATOM     14  C   LIG    1      201.249  82.308 165.898  0.00  0.00    +0.046 A 
ATOM     15  C   LIG    1      201.346  82.859 164.653  0.00  0.00    +0.008 A 
ATOM     16  C   LIG    1      200.210  82.622 163.866  0.00  0.00    +0.019 A 
ENDBRANCH  10  12
ENDBRANCH   5   7
BRANCH   2  17
ATOM     17  C   LIG    1      192.605  78.228 160.669  0.00  0.00    +0.174 C 
BRANCH  17  18
ATOM     18  S   LIG    1      193.283  76.626 161.242  0.00  0.00    -0.058 S 
BRANCH  18  19
ATOM     19  C   LIG    1      192.408  76.411 162.722  0.00  0.00    +0.258 A 
ATOM     20  O   LIG    1      191.369  77.256 162.975  0.00  0.00    -0.431 OA
ATOM     21  C   LIG    1      190.899  76.850 164.162  0.00  0.00    +0.156 A 
ATOM     22  C   LIG    1      189.836  77.354 164.904  0.00  0.00    +0.048 A 
ATOM     23  C   LIG    1      189.549  76.743 166.121  0.00  0.00    +0.004 A 
ATOM     24  C   LIG    1      190.323  75.653 166.566  0.00  0.00    +0.002 A 
ATOM     25  C   LIG    1      191.381  75.172 165.798  0.00  0.00    +0.031 A 
ATOM     26  C   LIG    1      191.669  75.785 164.575  0.00  0.00    +0.110 A 
ATOM     27  N   LIG    1      192.633  75.521 163.638  0.00  0.00    -0.203 NA
ENDBRANCH  18  19
ENDBRANCH  17  18
ENDBRANCH   2  17
TORSDOF 5
