REMARK VINA RESULT:      -5.6     49.738     52.399
REMARK  Name = 
REMARK                            x       y       z     vdW  Elec       q    Type
REMARK                         _______ _______ _______ _____ _____    ______ ____
ROOT
ATOM      1  C   LIG    1      205.446 113.226 146.521  0.00  0.00    -0.010 A 
ATOM      2  C   LIG    1      204.066 113.052 146.489  0.00  0.00    -0.007 A 
ATOM      3  C   LIG    1      203.252 113.906 145.804  0.00  0.00    -0.010 A 
ATOM      4  C   LIG    1      203.818 114.940 145.145  0.00  0.00    -0.006 A 
ATOM      5  C   LIG    1      205.210 115.189 145.122  0.00  0.00    +0.002 A 
ATOM      6  C   LIG    1      205.967 114.295 145.829  0.00  0.00    -0.006 A 
ENDROOT
BRANCH   1   8
ATOM      7  C   LIG    1      205.436 111.404 148.235  0.00  0.00    +0.020 C 
ATOM      8  C   LIG    1      206.252 112.247 147.282  0.00  0.00    +0.098 C 
ATOM      9  C   LIG    1      207.439 112.894 147.992  0.00  0.00    +0.020 C 
BRANCH   8  10
ATOM     10  C   LIG    1      206.899 111.301 146.326  0.00  0.00    +0.075 C 
ATOM     11  N   LIG    1      207.422 110.567 145.568  0.00  0.00    -0.196 NA
ENDBRANCH   8  10
ENDBRANCH   1   8
BRANCH   3  12
ATOM     12  C   LIG    1      201.759 113.744 145.784  0.00  0.00    +0.098 C 
ATOM     13  C   LIG    1      201.361 112.538 146.558  0.00  0.00    +0.020 C 
ATOM     14  C   LIG    1      201.336 113.718 144.324  0.00  0.00    +0.020 C 
BRANCH  12  15
ATOM     15  C   LIG    1      201.146 114.908 146.418  0.00  0.00    +0.075 C 
ATOM     16  N   LIG    1      200.648 115.848 146.929  0.00  0.00    -0.196 NA
ENDBRANCH  12  15
ENDBRANCH   3  12
BRANCH   5  17
ATOM     17  C   LIG    1      205.589 116.333 144.341  0.00  0.00    +0.156 C 
BRANCH  17  18
ATOM     18  N   LIG    1      205.264 116.407 142.968  0.00  0.00    -0.226 N 
ATOM     19  N   LIG    1      204.437 117.279 142.413  0.00  0.00    -0.145 NA
ATOM     20  C   LIG    1      204.331 117.025 141.102  0.00  0.00    +0.221 A 
ATOM     21  N   LIG    1      205.115 115.959 140.809  0.00  0.00    -0.201 NA
ATOM     22  C   LIG    1      205.684 115.590 141.971  0.00  0.00    +0.198 A 
ENDBRANCH  17  18
ENDBRANCH   5  17
TORSDOF 6
