REMARK VINA RESULT:      -8.1      0.000      0.000
REMARK  Name = 
REMARK                            x       y       z     vdW  Elec       q    Type
REMARK                         _______ _______ _______ _____ _____    ______ ____
ROOT
ATOM      1  C   LIG    1      169.638 144.544 154.795  0.00  0.00    +0.072 C 
ATOM      2  C   LIG    1      170.889 144.122 155.687  0.00  0.00    +0.070 C 
ATOM      3  N   LIG    1      171.127 145.513 156.326  0.00  0.00    -0.269 NA
ATOM      4  C   LIG    1      172.136 146.189 155.728  0.00  0.00    +0.073 C 
ATOM      5  C   LIG    1      172.220 145.664 154.286  0.00  0.00    +0.024 C 
ATOM      6  C   LIG    1      169.957 146.277 156.441  0.00  0.00    +0.099 C 
ATOM      7  C   LIG    1      169.704 146.807 155.039  0.00  0.00    -0.013 C 
ATOM      8  C   LIG    1      172.104 144.338 154.628  0.00  0.00    +0.055 C 
ATOM      9  C   LIG    1      172.026 143.234 153.501  0.00  0.00    +0.127 C 
ATOM     10  C   LIG    1      170.611 143.543 152.854  0.00  0.00    +0.268 C 
ATOM     11  O   LIG    1      170.571 144.792 152.368  0.00  0.00    -0.209 OA
ATOM     12  N   LIG    1      171.825 142.092 154.433  0.00  0.00    -0.250 N 
ATOM     13  C   LIG    1      170.903 141.116 154.448  0.00  0.00    +0.307 C 
ATOM     14  O   LIG    1      170.816 140.178 155.260  0.00  0.00    -0.265 OA
ATOM     15  C   LIG    1      172.939 142.328 155.320  0.00  0.00    +0.053 A 
ATOM     16  C   LIG    1      173.698 141.375 155.953  0.00  0.00    +0.051 A 
ATOM     17  C   LIG    1      174.756 141.825 156.749  0.00  0.00    +0.137 A 
ATOM     18  C   LIG    1      175.029 143.151 156.897  0.00  0.00    +0.026 A 
ATOM     19  C   LIG    1      174.222 144.055 156.229  0.00  0.00    -0.003 A 
ATOM     20  C   LIG    1      173.162 143.678 155.430  0.00  0.00    -0.006 A 
ATOM     21  C   LIG    1      169.438 143.200 153.871  0.00  0.00    +0.213 C 
ATOM     22  C   LIG    1      169.547 145.763 154.232  0.00  0.00    -0.025 C 
ENDROOT
BRANCH  18  23
ATOM     23  C   LIG    1      176.140 143.548 157.792  0.00  0.00    +0.146 C 
ATOM     24  C   LIG    1      176.610 144.936 157.536  0.00  0.00    +0.068 A 
ATOM     25  C   LIG    1      177.595 145.545 158.252  0.00  0.00    -0.005 A 
ATOM     26  C   LIG    1      177.754 146.838 157.711  0.00  0.00    +0.015 A 
ATOM     27  C   LIG    1      176.850 146.975 156.673  0.00  0.00    +0.081 A 
ATOM     28  C   LIG    1      176.813 148.179 155.975  0.00  0.00    +0.019 A 
ATOM     29  C   LIG    1      177.644 149.235 156.282  0.00  0.00    +0.002 A 
ATOM     30  C   LIG    1      178.541 149.103 157.308  0.00  0.00    +0.000 A 
ATOM     31  C   LIG    1      178.570 147.914 157.991  0.00  0.00    +0.001 A 
ATOM     32  C   LIG    1      178.386 145.041 159.374  0.00  0.00    +0.045 C 
ATOM     33  C   LIG    1      179.841 144.931 159.218  0.00  0.00    +0.077 C 
ATOM     34  N   LIG    1      180.350 143.771 158.563  0.00  0.00    -0.270 NA
ATOM     35  C   LIG    1      180.603 142.626 159.412  0.00  0.00    +0.103 C 
ATOM     36  C   LIG    1      180.394 141.303 158.735  0.00  0.00    +0.141 C 
ATOM     37  C   LIG    1      178.971 141.110 158.189  0.00  0.00    +0.033 C 
ATOM     38  C   LIG    1      178.348 142.557 158.548  0.00  0.00    +0.020 C 
ATOM     39  O   LIG    1      180.556 140.322 159.742  0.00  0.00    -0.224 OA
ATOM     40  C   LIG    1      179.424 143.342 157.569  0.00  0.00    +0.072 C 
ATOM     41  N   LIG    1      176.192 145.832 156.599  0.00  0.00    -0.249 NA
ATOM     42  C   LIG    1      177.220 142.569 157.418  0.00  0.00    +0.022 C 
BRANCH  36  43
ATOM     43  C   LIG    1      181.363 141.028 157.637  0.00  0.00    +0.032 C 
ATOM     44  C   LIG    1      181.330 139.563 157.286  0.00  0.00    +0.003 C 
ENDBRANCH  36  43
BRANCH  23  45
ATOM     45  C   LIG    1      175.663 143.519 159.168  0.00  0.00    +0.325 C 
ATOM     46  O   LIG    1      174.856 144.476 159.494  0.00  0.00    -0.249 OA
BRANCH  45  47
ATOM     47  O   LIG    1      175.914 142.662 160.195  0.00  0.00    -0.444 OA
ATOM     48  C   LIG    1      175.989 143.070 161.547  0.00  0.00    +0.256 C 
ENDBRANCH  45  47
ENDBRANCH  23  45
ENDBRANCH  18  23
BRANCH   1  50
ATOM     49  C   LIG    1      168.600 143.439 156.479  0.00  0.00    +0.001 C 
ATOM     50  C   LIG    1      168.492 144.303 155.811  0.00  0.00    +0.009 C 
ENDBRANCH   1  50
BRANCH  10  51
ATOM     51  C   LIG    1      170.627 142.672 151.666  0.00  0.00    +0.350 C 
ATOM     52  O   LIG    1      169.647 142.347 150.955  0.00  0.00    -0.247 OA
BRANCH  51  53
ATOM     53  O   LIG    1      171.826 142.098 151.208  0.00  0.00    -0.443 OA
ATOM     54  C   LIG    1      171.994 141.611 149.905  0.00  0.00    +0.256 C 
ENDBRANCH  51  53
ENDBRANCH  10  51
BRANCH  17  55
ATOM     55  O   LIG    1      175.515 140.804 157.377  0.00  0.00    -0.472 OA
ATOM     56  C   LIG    1      175.030 139.493 157.510  0.00  0.00    +0.252 C 
ENDBRANCH  17  55
BRANCH  21  57
ATOM     57  O   LIG    1      168.319 143.852 153.080  0.00  0.00    -0.449 OA
BRANCH  57  58
ATOM     58  C   LIG    1      167.161 143.137 153.060  0.00  0.00    +0.318 C 
ATOM     59  O   LIG    1      166.950 141.930 152.902  0.00  0.00    -0.250 OA
ATOM     60  C   LIG    1      165.884 143.936 153.263  0.00  0.00    +0.121 C 
ENDBRANCH  57  58
ENDBRANCH  21  57
TORSDOF 10
