REMARK VINA RESULT:      -5.8      6.941      9.135
REMARK  Name = ZINC000049409419
REMARK                            x       y       z     vdW  Elec       q    Type
REMARK                         _______ _______ _______ _____ _____    ______ ____
ROOT
ATOM      1  N   LIG    1      167.919 143.112 149.533  0.00  0.00    -0.282 N 
ATOM      2  H   LIG    1      168.309 143.245 150.482  0.00  0.00    +0.155 HD
ATOM      3  C   LIG    1      166.634 142.634 149.477  0.00  0.00    +0.226 C 
ATOM      4  O   LIG    1      166.023 142.601 148.430  0.00  0.00    -0.275 OA
ENDROOT
BRANCH   1   9
ATOM      5  C   LIG    1      170.554 144.312 146.479  0.00  0.00    +0.142 A 
ATOM      6  C   LIG    1      169.503 145.174 146.836  0.00  0.00    +0.084 A 
ATOM      7 CL   LIG    1      169.289 146.698 146.039  0.00  0.00    -0.080 Cl
ATOM      8  C   LIG    1      168.611 144.806 147.844  0.00  0.00    +0.050 A 
ATOM      9  C   LIG    1      168.776 143.580 148.494  0.00  0.00    +0.077 A 
ATOM     10  C   LIG    1      169.822 142.718 148.124  0.00  0.00    +0.145 A 
ATOM     11  C   LIG    1      170.716 143.081 147.118  0.00  0.00    +0.094 A 
BRANCH   5  13
ATOM     12  C   LIG    1      171.294 144.410 144.064  0.00  0.00    +0.277 C 
ATOM     13  O   LIG    1      171.425 144.713 145.470  0.00  0.00    -0.494 OA
ENDBRANCH   5  13
BRANCH  10  14
ATOM     14  O   LIG    1      169.928 141.492 148.786  0.00  0.00    -0.493 OA
ATOM     15  C   LIG    1      171.155 140.757 148.994  0.00  0.00    +0.277 C 
ENDBRANCH  10  14
ENDBRANCH   1   9
BRANCH   3  16
ATOM     16  C   LIG    1      166.010 142.175 150.768  0.00  0.00    +0.193 C 
BRANCH  16  17
ATOM     17  C   LIG    1      167.170 141.976 151.704  0.00  0.00    +0.226 A 
ATOM     18  O   LIG    1      167.648 142.970 152.397  0.00  0.00    -0.419 OA
ATOM     19  C   LIG    1      168.648 142.470 153.093  0.00  0.00    +0.255 A 
ATOM     20  N   LIG    1      168.782 141.208 152.833  0.00  0.00    -0.107 NA
ATOM     21  N   LIG    1      167.812 140.893 151.924  0.00  0.00    -0.112 NA
BRANCH  19  22
ATOM     22  C   LIG    1      169.415 143.319 153.992  0.00  0.00    +0.079 A 
ATOM     23  C   LIG    1      170.221 144.404 153.694  0.00  0.00    -0.031 A 
ATOM     24  C   LIG    1      170.460 144.937 152.296  0.00  0.00    +0.045 C 
ATOM     25  C   LIG    1      170.808 144.978 154.832  0.00  0.00    +0.012 A 
ATOM     26  C   LIG    1      170.461 144.346 155.992  0.00  0.00    +0.046 A 
ATOM     27  S   LIG    1      169.398 143.022 155.704  0.00  0.00    -0.092 S 
ENDBRANCH  19  22
ENDBRANCH  16  17
ENDBRANCH   3  16
TORSDOF 6
