REMARK VINA RESULT:      -6.8     48.064     51.267
REMARK  Name = ZINC000186872603
REMARK                            x       y       z     vdW  Elec       q    Type
REMARK                         _______ _______ _______ _____ _____    ______ ____
ROOT
ATOM      1  N   LIG    1      203.095 113.283 145.559  0.00  0.00    -0.297 N 
ATOM      2  C   LIG    1      204.042 113.075 144.431  0.00  0.00    +0.123 C 
ATOM      3  C   LIG    1      204.941 111.859 144.770  0.00  0.00    +0.103 C 
ATOM      4  N   LIG    1      205.682 112.092 146.044  0.00  0.00    -0.299 NA
ATOM      5  C   LIG    1      204.699 112.285 147.157  0.00  0.00    +0.103 C 
ATOM      6  C   LIG    1      203.746 113.479 146.881  0.00  0.00    +0.123 C 
ENDROOT
BRANCH   1  10
ATOM      7  C   LIG    1      199.898 116.546 146.933  0.00  0.00    +0.066 C 
ATOM      8  C   LIG    1      200.351 115.494 145.951  0.00  0.00    +0.044 A 
ATOM      9  N   LIG    1      201.485 114.866 146.182  0.00  0.00    -0.220 NA
ATOM     10  C   LIG    1      201.895 113.936 145.311  0.00  0.00    +0.218 A 
ATOM     11  N   LIG    1      201.209 113.600 144.212  0.00  0.00    -0.219 NA
ATOM     12  C   LIG    1      200.067 114.215 143.952  0.00  0.00    +0.049 A 
ATOM     13  C   LIG    1      199.604 115.188 144.824  0.00  0.00    +0.046 A 
BRANCH  12  14
ATOM     14  C   LIG    1      199.274 113.847 142.701  0.00  0.00    +0.032 C 
ATOM     15  C   LIG    1      198.868 112.367 142.776  0.00  0.00    +0.014 C 
ATOM     16  C   LIG    1      200.139 114.113 141.458  0.00  0.00    +0.014 C 
ENDBRANCH  12  14
ENDBRANCH   1  10
BRANCH   4  17
ATOM     17  C   LIG    1      206.696 113.161 145.924  0.00  0.00    +0.085 C 
BRANCH  17  18
ATOM     18  C   LIG    1      207.260 113.331 147.346  0.00  0.00    +0.025 C 
BRANCH  18  19
ATOM     19  C   LIG    1      208.497 112.424 147.495  0.00  0.00    +0.097 C 
BRANCH  19  20
ATOM     20  C   LIG    1      208.337 111.590 148.748  0.00  0.00    +0.197 A 
ATOM     21  O   LIG    1      207.305 111.859 149.592  0.00  0.00    -0.440 OA
ATOM     22  C   LIG    1      207.429 110.965 150.577  0.00  0.00    +0.155 A 
ATOM     23  C   LIG    1      206.638 110.782 151.710  0.00  0.00    +0.048 A 
ATOM     24  C   LIG    1      206.995 109.762 152.587  0.00  0.00    +0.004 A 
ATOM     25  C   LIG    1      208.121 108.956 152.320  0.00  0.00    +0.002 A 
ATOM     26  C   LIG    1      208.890 109.165 151.178  0.00  0.00    +0.031 A 
ATOM     27  C   LIG    1      208.527 110.189 150.300  0.00  0.00    +0.110 A 
ATOM     28  N   LIG    1      209.084 110.616 149.118  0.00  0.00    -0.213 NA
ENDBRANCH  19  20
ENDBRANCH  18  19
ENDBRANCH  17  18
ENDBRANCH   4  17
TORSDOF 6
