REMARK VINA RESULT:      -7.0     43.741     46.771
REMARK  Name = ZINC000000622956
REMARK                            x       y       z     vdW  Elec       q    Type
REMARK                         _______ _______ _______ _____ _____    ______ ____
ROOT
ATOM      1  C   LIG    1      202.503 114.694 143.190  0.00  0.00    +0.271 C 
ATOM      2  N   LIG    1      202.308 116.116 143.336  0.00  0.00    -0.157 N 
ATOM      3  C   LIG    1      202.985 116.805 142.444  0.00  0.00    +0.250 C 
ATOM      4  C   LIG    1      202.964 118.321 142.307  0.00  0.00    +0.124 C 
ATOM      5  C   LIG    1      202.197 118.662 141.009  0.00  0.00    +0.012 C 
ATOM      6  C   LIG    1      203.115 118.453 139.791  0.00  0.00    +0.004 C 
ATOM      7  C   LIG    1      203.500 116.992 139.473  0.00  0.00    +0.045 C 
ATOM      8  C   LIG    1      204.487 116.461 140.530  0.00  0.00    +0.236 C 
ATOM      9  N   LIG    1      203.672 116.010 141.665  0.00  0.00    -0.258 N 
ATOM     10  C   LIG    1      203.460 114.581 141.979  0.00  0.00    +0.323 C 
ENDROOT
BRANCH   1  11
ATOM     11  C   LIG    1      203.123 114.076 144.449  0.00  0.00    +0.034 A 
ATOM     12  C   LIG    1      204.464 114.319 144.798  0.00  0.00    +0.060 A 
ATOM     13  C   LIG    1      204.966 113.741 145.954  0.00  0.00    +0.167 A 
ATOM     14  O   LIG    1      206.218 113.861 146.442  0.00  0.00    -0.453 OA
ATOM     15  C   LIG    1      206.246 113.070 147.699  0.00  0.00    +0.466 C 
ATOM     16  O   LIG    1      204.882 112.500 147.826  0.00  0.00    -0.453 OA
ATOM     17  C   LIG    1      204.189 112.951 146.760  0.00  0.00    +0.166 A 
ATOM     18  C   LIG    1      202.863 112.696 146.452  0.00  0.00    +0.050 A 
ATOM     19  C   LIG    1      202.332 113.266 145.293  0.00  0.00    +0.014 A 
ENDBRANCH   1  11
BRANCH   2  20
ATOM     20  C   LIG    1      201.416 116.686 144.275  0.00  0.00    +0.124 A 
ATOM     21  C   LIG    1      200.116 116.977 143.866  0.00  0.00    +0.050 A 
ATOM     22  C   LIG    1      199.229 117.541 144.779  0.00  0.00    +0.024 A 
ATOM     23  C   LIG    1      199.651 117.809 146.086  0.00  0.00    +0.041 A 
ATOM     24 CL   LIG    1      198.547 118.511 147.217  0.00  0.00    -0.084 Cl
ATOM     25  C   LIG    1      200.960 117.516 146.482  0.00  0.00    +0.024 A 
ATOM     26  C   LIG    1      201.851 116.952 145.573  0.00  0.00    +0.050 A 
ENDBRANCH   2  20
BRANCH   1  27
ATOM     27  O   LIG    1      201.230 114.139 142.886  0.00  0.00    -0.347 OA
ATOM     28  H   LIG    1      200.878 113.743 143.697  0.00  0.00    +0.215 HD
ENDBRANCH   1  27
TORSDOF 3
