REMARK VINA RESULT:      -6.7      3.288      4.711
REMARK  Name = ZINC000009075134
REMARK                            x       y       z     vdW  Elec       q    Type
REMARK                         _______ _______ _______ _____ _____    ______ ____
ROOT
ATOM      1  C   LIG    1      171.515 147.653 146.224  0.00  0.00    +0.061 A 
ATOM      2  C   LIG    1      171.501 148.274 147.485  0.00  0.00    +0.039 A 
ATOM      3  C   LIG    1      170.945 149.536 147.640  0.00  0.00    +0.048 A 
ATOM      4  N   LIG    1      171.003 150.145 148.920  0.00  0.00    -0.284 N 
ATOM      5  H   LIG    1      171.692 149.824 149.613  0.00  0.00    +0.155 HD
ATOM      6  C   LIG    1      170.272 151.221 149.307  0.00  0.00    +0.227 C 
ATOM      7  C   LIG    1      169.114 151.730 148.469  0.00  0.00    +0.170 C 
ATOM      8  S   LIG    1      169.667 151.802 146.724  0.00  0.00    -0.114 S 
ATOM      9  O   LIG    1      170.576 151.714 150.371  0.00  0.00    -0.275 OA
ATOM     10  C   LIG    1      170.379 150.220 146.545  0.00  0.00    +0.030 A 
ATOM     11  C   LIG    1      170.405 149.611 145.288  0.00  0.00    +0.017 A 
ATOM     12  C   LIG    1      170.960 148.346 145.130  0.00  0.00    +0.016 A 
ENDROOT
BRANCH   1  14
ATOM     13  O   LIG    1      173.283 146.113 145.874  0.00  0.00    -0.245 OA
ATOM     14  C   LIG    1      172.093 146.322 146.066  0.00  0.00    +0.340 C 
BRANCH  14  15
ATOM     15  O   LIG    1      171.263 145.253 146.124  0.00  0.00    -0.456 OA
BRANCH  15  16
ATOM     16  C   LIG    1      170.681 144.647 144.939  0.00  0.00    +0.268 C 
BRANCH  16  17
ATOM     17  C   LIG    1      169.213 144.462 145.277  0.00  0.00    -0.010 A 
ATOM     18  C   LIG    1      168.794 143.350 146.006  0.00  0.00    +0.008 A 
ATOM     19  C   LIG    1      167.448 143.181 146.318  0.00  0.00    +0.015 A 
ATOM     20  C   LIG    1      166.511 144.125 145.906  0.00  0.00    +0.018 A 
ATOM     21 BR   LIG    1      164.681 143.895 146.330  0.00  0.00    -0.050 Br
ATOM     22  C   LIG    1      166.926 145.241 145.184  0.00  0.00    +0.015 A 
ATOM     23  C   LIG    1      168.272 145.410 144.873  0.00  0.00    +0.008 A 
ENDBRANCH  16  17
ENDBRANCH  15  16
ENDBRANCH  14  15
ENDBRANCH   1  14
TORSDOF 4
