REMARK VINA RESULT:      -5.9     27.430     29.624
REMARK  Name = ZINC000000622877
REMARK                            x       y       z     vdW  Elec       q    Type
REMARK                         _______ _______ _______ _____ _____    ______ ____
ROOT
ATOM      1  O   LIG    1      197.531  88.639 156.091  0.00  0.00    -0.274 OA
ATOM      2  C   LIG    1      196.741  88.645 157.022  0.00  0.00    +0.235 C 
ATOM      3  N   LIG    1      196.163  89.813 157.417  0.00  0.00    -0.219 N 
ATOM      4  H   LIG    1      195.363  89.812 158.072  0.00  0.00    +0.176 HD
ENDROOT
BRANCH   3   5
ATOM      5  N   LIG    1      196.456  91.090 156.742  0.00  0.00    -0.217 N 
ATOM      6  C   LIG    1      195.730  91.544 155.628  0.00  0.00    +0.079 A 
ATOM      7  C   LIG    1      196.083  92.818 155.321  0.00  0.00    +0.078 A 
ATOM      8  S   LIG    1      197.323  93.453 156.353  0.00  0.00    -0.033 S 
ATOM      9  C   LIG    1      197.383  91.970 157.254  0.00  0.00    +0.308 A 
ATOM     10  O   LIG    1      198.145  91.701 158.208  0.00  0.00    -0.258 OA
BRANCH   6  11
ATOM     11  C   LIG    1      194.754  90.703 154.949  0.00  0.00    +0.001 A 
ATOM     12  C   LIG    1      193.443  90.588 155.429  0.00  0.00    +0.010 A 
ATOM     13  C   LIG    1      192.517  89.777 154.782  0.00  0.00    +0.001 A 
ATOM     14  C   LIG    1      192.886  89.068 153.644  0.00  0.00    +0.000 A 
ATOM     15  C   LIG    1      194.185  89.173 153.155  0.00  0.00    +0.001 A 
ATOM     16  C   LIG    1      195.110  89.984 153.802  0.00  0.00    +0.010 A 
ENDBRANCH   6  11
ENDBRANCH   3   5
BRANCH   2  17
ATOM     17  C   LIG    1      196.364  87.378 157.764  0.00  0.00    +0.132 C 
BRANCH  17  18
ATOM     18  C   LIG    1      194.962  86.973 157.329  0.00  0.00    -0.039 A 
ATOM     19  C   LIG    1      193.893  87.058 158.220  0.00  0.00    +0.005 A 
ATOM     20  C   LIG    1      192.610  86.704 157.812  0.00  0.00    +0.015 A 
ATOM     21  C   LIG    1      192.385  86.263 156.511  0.00  0.00    +0.018 A 
ATOM     22 BR   LIG    1      190.640  85.785 155.959  0.00  0.00    -0.050 Br
ATOM     23  C   LIG    1      193.451  86.174 155.619  0.00  0.00    +0.015 A 
ATOM     24  C   LIG    1      194.734  86.526 156.027  0.00  0.00    +0.005 A 
ENDBRANCH  17  18
ENDBRANCH   2  17
TORSDOF 4
