REMARK VINA RESULT:      -7.9     46.423     51.496
REMARK  Name = ZINC000049410085
REMARK                            x       y       z     vdW  Elec       q    Type
REMARK                         _______ _______ _______ _____ _____    ______ ____
ROOT
ATOM      1  C   LIG    1      203.966 115.221 144.253  0.00  0.00    +0.247 C 
ATOM      2  N   LIG    1      204.757 114.076 144.299  0.00  0.00    -0.297 N 
ATOM      3  C   LIG    1      204.556 113.036 145.321  0.00  0.00    +0.112 C 
ATOM      4  C   LIG    1      205.569 113.369 146.429  0.00  0.00    +0.064 C 
ATOM      5  C   LIG    1      206.989 113.382 145.831  0.00  0.00    +0.102 C 
ATOM      6  N   LIG    1      207.904 113.799 146.854  0.00  0.00    -0.290 N 
ATOM      7  H   LIG    1      207.907 114.787 147.123  0.00  0.00    +0.151 HD
ATOM      8  C   LIG    1      208.418 112.943 147.766  0.00  0.00    +0.247 C 
ATOM      9  O   LIG    1      208.898 113.468 148.760  0.00  0.00    -0.270 OA
ATOM     10  C   LIG    1      208.350 111.518 147.516  0.00  0.00    +0.058 A 
ATOM     11  C   LIG    1      208.795 110.552 148.431  0.00  0.00    +0.016 A 
ATOM     12  C   LIG    1      208.702 109.199 148.127  0.00  0.00    +0.021 A 
ATOM     13  C   LIG    1      208.165 108.795 146.897  0.00  0.00    +0.043 A 
ATOM     14 CL   LIG    1      208.054 107.105 146.525  0.00  0.00    -0.083 Cl
ATOM     15  C   LIG    1      207.721 109.738 145.974  0.00  0.00    +0.043 A 
ATOM     16  C   LIG    1      207.811 111.092 146.292  0.00  0.00    +0.042 A 
ATOM     17  N   LIG    1      207.369 112.050 145.380  0.00  0.00    -0.323 N 
ATOM     18  H   LIG    1      206.799 111.701 144.602  0.00  0.00    +0.148 HD
ATOM     19  C   LIG    1      207.107 114.378 144.669  0.00  0.00    +0.064 C 
ATOM     20  C   LIG    1      206.055 114.037 143.601  0.00  0.00    +0.112 C 
ATOM     21  O   LIG    1      204.460 116.231 143.762  0.00  0.00    -0.270 OA
ENDROOT
BRANCH   1  25
ATOM     22  C   LIG    1      200.534 117.211 147.301  0.00  0.00    +0.044 C 
ATOM     23  C   LIG    1      200.944 116.163 146.290  0.00  0.00    -0.049 A 
ATOM     24  C   LIG    1      202.224 116.175 145.742  0.00  0.00    +0.016 A 
ATOM     25  C   LIG    1      202.608 115.213 144.802  0.00  0.00    +0.037 A 
ATOM     26  C   LIG    1      201.673 114.251 144.394  0.00  0.00    +0.016 A 
ATOM     27  C   LIG    1      200.392 114.231 144.936  0.00  0.00    -0.049 A 
ATOM     28  C   LIG    1      199.385 113.194 144.488  0.00  0.00    +0.044 C 
ATOM     29  C   LIG    1      200.033 115.190 145.881  0.00  0.00    +0.006 A 
ENDBRANCH   1  25
TORSDOF 1
