REMARK VINA RESULT:      -8.0     44.896     48.280
REMARK  Name = ZINC000049420917
REMARK                            x       y       z     vdW  Elec       q    Type
REMARK                         _______ _______ _______ _____ _____    ______ ____
ROOT
ATOM      1  N   LIG    1      162.798 107.890 172.744  0.00  0.00    -0.205 N 
ATOM      2  C   LIG    1      162.718 108.737 173.876  0.00  0.00    +0.160 A 
ATOM      3  N   LIG    1      163.680 108.626 174.804  0.00  0.00    -0.238 NA
ATOM      4  C   LIG    1      163.632 109.401 175.886  0.00  0.00    +0.113 A 
ATOM      5  C   LIG    1      162.615 110.332 176.078  0.00  0.00    +0.022 A 
ATOM      6  C   LIG    1      161.615 110.464 175.121  0.00  0.00    +0.034 A 
ATOM      7  C   LIG    1      161.670 109.640 174.005  0.00  0.00    +0.149 A 
ATOM      8  S   LIG    1      160.554 109.685 172.643  0.00  0.00    +0.082 S 
ATOM      9  O   LIG    1      159.619 108.633 172.767  0.00  0.00    -0.150 OA
ATOM     10  O   LIG    1      160.028 110.995 172.516  0.00  0.00    -0.150 OA
ATOM     11  N   LIG    1      161.532 109.371 171.365  0.00  0.00    -0.150 N 
ATOM     12  C   LIG    1      162.175 108.183 171.521  0.00  0.00    +0.334 C 
ATOM     13  O   LIG    1      162.219 107.382 170.592  0.00  0.00    -0.250 OA
ENDROOT
BRANCH   1  18
ATOM     14  C   LIG    1      165.624 102.946 173.188  0.00  0.00    +0.044 C 
ATOM     15  C   LIG    1      164.871 104.254 173.062  0.00  0.00    -0.050 A 
ATOM     16  C   LIG    1      163.650 104.425 173.715  0.00  0.00    +0.005 A 
ATOM     17  C   LIG    1      162.959 105.627 173.614  0.00  0.00    +0.024 A 
ATOM     18  C   LIG    1      163.503 106.661 172.853  0.00  0.00    +0.044 A 
ATOM     19  C   LIG    1      164.724 106.508 172.198  0.00  0.00    +0.024 A 
ATOM     20  C   LIG    1      165.406 105.300 172.307  0.00  0.00    +0.005 A 
ENDBRANCH   1  18
BRANCH  11  21
ATOM     21  C   LIG    1      160.935 109.700 170.073  0.00  0.00    +0.171 C 
BRANCH  21  22
ATOM     22  C   LIG    1      161.791 110.843 169.564  0.00  0.00    -0.028 A 
ATOM     23  C   LIG    1      161.277 112.144 169.543  0.00  0.00    +0.008 A 
ATOM     24  C   LIG    1      162.060 113.200 169.082  0.00  0.00    +0.038 A 
ATOM     25  C   LIG    1      163.353 112.934 168.653  0.00  0.00    +0.123 A 
ATOM     26  F   LIG    1      164.117 113.958 168.204  0.00  0.00    -0.205 F 
ATOM     27  C   LIG    1      163.889 111.654 168.670  0.00  0.00    +0.038 A 
ATOM     28  C   LIG    1      163.100 110.604 169.131  0.00  0.00    +0.008 A 
ENDBRANCH  21  22
ENDBRANCH  11  21
TORSDOF 3
