REMARK VINA RESULT:      -4.3      1.948      2.461
REMARK  Name = 
REMARK                            x       y       z     vdW  Elec       q    Type
REMARK                         _______ _______ _______ _____ _____    ______ ____
ROOT
ATOM      1  C   LIG    1      167.111 154.654 149.614  0.00  0.00    +0.160 A 
ATOM      2  N   LIG    1      168.293 154.202 150.066  0.00  0.00    -0.236 NA
ATOM      3  C   LIG    1      169.080 153.393 149.343  0.00  0.00    +0.120 A 
ATOM      4  C   LIG    1      168.717 152.974 148.080  0.00  0.00    +0.120 A 
ATOM      5  N   LIG    1      167.538 153.419 147.616  0.00  0.00    -0.239 NA
ATOM      6  C   LIG    1      166.745 154.232 148.339  0.00  0.00    +0.123 A 
ENDROOT
BRANCH   1   8
ATOM      7  N   LIG    1      165.206 155.165 151.030  0.00  0.00    -0.101 NA
ATOM      8  C   LIG    1      166.270 155.532 150.413  0.00  0.00    +0.316 C 
ATOM      9  O   LIG    1      166.634 156.863 150.521  0.00  0.00    -0.262 OA
ENDBRANCH   1   8
TORSDOF 1
