MODEL 1
REMARK VINA RESULT:      -8.0      0.000      0.000
REMARK  Name = ZINC000006087320
REMARK                            x       y       z     vdW  Elec       q    Type
REMARK                         _______ _______ _______ _____ _____    ______ ____
ROOT
ATOM      1  C   LIG    1      164.453 162.814 155.850  0.00  0.00    +0.222 C 
ENDROOT
BRANCH   1   2
ATOM      2  N   LIG    1      163.794 161.986 156.889  0.00  0.00    -0.290 N 
ATOM      3  C   LIG    1      164.477 160.951 157.503  0.00  0.00    +0.262 A 
ATOM      4  O   LIG    1      165.638 160.743 157.141  0.00  0.00    -0.267 OA
ATOM      5  C   LIG    1      163.782 160.177 158.510  0.00  0.00    +0.068 A 
ATOM      6  C   LIG    1      164.408 159.129 159.201  0.00  0.00    +0.035 A 
ATOM      7  C   LIG    1      163.702 158.409 160.158  0.00  0.00    +0.043 A 
ATOM      8 CL   LIG    1      164.476 157.116 161.008  0.00  0.00    -0.083 Cl
ATOM      9  C   LIG    1      162.368 158.720 160.435  0.00  0.00    +0.042 A 
ATOM     10  C   LIG    1      161.744 159.757 159.752  0.00  0.00    +0.068 A 
ATOM     11 CL   LIG    1      160.086 160.116 160.123  0.00  0.00    -0.081 Cl
ATOM     12  C   LIG    1      162.446 160.499 158.776  0.00  0.00    +0.096 A 
ATOM     13  N   LIG    1      161.832 161.549 158.066  0.00  0.00    -0.235 NA
ATOM     14  C   LIG    1      162.464 162.229 157.187  0.00  0.00    +0.203 A 
ENDBRANCH   1   2
BRANCH   1  17
ATOM     15  N   LIG    1      163.072 163.835 154.083  0.00  0.00    -0.284 N 
ATOM     16  H   LIG    1      163.275 164.684 154.640  0.00  0.00    +0.155 HD
ATOM     17  C   LIG    1      163.639 162.684 154.573  0.00  0.00    +0.237 C 
ATOM     18  O   LIG    1      163.517 161.617 154.010  0.00  0.00    -0.274 OA
BRANCH  15  20
ATOM     19  C   LIG    1      160.849 164.165 153.183  0.00  0.00    -0.026 A 
ATOM     20  C   LIG    1      162.231 164.027 152.956  0.00  0.00    +0.037 A 
ATOM     21  C   LIG    1      162.751 164.105 151.660  0.00  0.00    +0.023 A 
ATOM     22  C   LIG    1      161.893 164.294 150.583  0.00  0.00    +0.002 A 
ATOM     23  C   LIG    1      160.523 164.414 150.795  0.00  0.00    +0.000 A 
ATOM     24  C   LIG    1      160.008 164.351 152.087  0.00  0.00    +0.005 A 
BRANCH  19  26
ATOM     25  C   LIG    1      158.710 164.034 154.377  0.00  0.00    +0.009 C 
ATOM     26  C   LIG    1      160.231 164.107 154.575  0.00  0.00    +0.033 C 
ENDBRANCH  19  26
ENDBRANCH  15  20
ENDBRANCH   1  17
TORSDOF 4
ENDMDL
MODEL 2
REMARK VINA RESULT:      -7.8      1.950      2.203
REMARK  Name = ZINC000006087320
REMARK                            x       y       z     vdW  Elec       q    Type
REMARK                         _______ _______ _______ _____ _____    ______ ____
ROOT
ATOM      1  C   LIG    1      164.331 161.371 155.271  0.00  0.00    +0.222 C 
ENDROOT
BRANCH   1   2
ATOM      2  N   LIG    1      163.386 161.191 156.399  0.00  0.00    -0.290 N 
ATOM      3  C   LIG    1      163.531 161.923 157.564  0.00  0.00    +0.262 A 
ATOM      4  O   LIG    1      164.480 162.711 157.626  0.00  0.00    -0.267 OA
ATOM      5  C   LIG    1      162.579 161.705 158.631  0.00  0.00    +0.068 A 
ATOM      6  C   LIG    1      162.636 162.425 159.835  0.00  0.00    +0.035 A 
ATOM      7  C   LIG    1      161.702 162.180 160.835  0.00  0.00    +0.043 A 
ATOM      8 CL   LIG    1      161.776 163.067 162.318  0.00  0.00    -0.083 Cl
ATOM      9  C   LIG    1      160.705 161.219 160.651  0.00  0.00    +0.042 A 
ATOM     10  C   LIG    1      160.645 160.504 159.462  0.00  0.00    +0.068 A 
ATOM     11 CL   LIG    1      159.391 159.317 159.268  0.00  0.00    -0.081 Cl
ATOM     12  C   LIG    1      161.585 160.738 158.434  0.00  0.00    +0.096 A 
ATOM     13  N   LIG    1      161.549 160.020 157.223  0.00  0.00    -0.235 NA
ATOM     14  C   LIG    1      162.393 160.234 156.287  0.00  0.00    +0.203 A 
ENDBRANCH   1   2
BRANCH   1  17
ATOM     15  N   LIG    1      162.991 162.907 153.886  0.00  0.00    -0.284 N 
ATOM     16  H   LIG    1      163.231 163.554 154.658  0.00  0.00    +0.155 HD
ATOM     17  C   LIG    1      163.510 161.642 154.021  0.00  0.00    +0.237 C 
ATOM     18  O   LIG    1      163.341 160.785 153.180  0.00  0.00    -0.274 OA
BRANCH  15  20
ATOM     19  C   LIG    1      160.782 163.565 153.148  0.00  0.00    -0.026 A 
ATOM     20  C   LIG    1      162.156 163.445 152.872  0.00  0.00    +0.037 A 
ATOM     21  C   LIG    1      162.676 163.870 151.645  0.00  0.00    +0.023 A 
ATOM     22  C   LIG    1      161.825 164.391 150.679  0.00  0.00    +0.002 A 
ATOM     23  C   LIG    1      160.462 164.499 150.935  0.00  0.00    +0.000 A 
ATOM     24  C   LIG    1      159.947 164.089 152.162  0.00  0.00    +0.005 A 
BRANCH  19  26
ATOM     25  C   LIG    1      159.802 164.424 155.227  0.00  0.00    +0.009 C 
ATOM     26  C   LIG    1      160.164 163.136 154.473  0.00  0.00    +0.033 C 
ENDBRANCH  19  26
ENDBRANCH  15  20
ENDBRANCH   1  17
TORSDOF 4
ENDMDL
MODEL 3
REMARK VINA RESULT:      -7.2     61.474     64.196
REMARK  Name = ZINC000006087320
REMARK                            x       y       z     vdW  Elec       q    Type
REMARK                         _______ _______ _______ _____ _____    ______ ____
ROOT
ATOM      1  C   LIG    1      205.879 114.992 143.919  0.00  0.00    +0.222 C 
ENDROOT
BRANCH   1   2
ATOM      2  N   LIG    1      204.416 115.063 144.147  0.00  0.00    -0.290 N 
ATOM      3  C   LIG    1      203.879 116.029 144.980  0.00  0.00    +0.262 A 
ATOM      4  O   LIG    1      204.664 116.808 145.527  0.00  0.00    -0.267 OA
ATOM      5  C   LIG    1      202.444 116.050 145.165  0.00  0.00    +0.068 A 
ATOM      6  C   LIG    1      201.814 117.012 145.969  0.00  0.00    +0.035 A 
ATOM      7  C   LIG    1      200.432 116.993 146.122  0.00  0.00    +0.043 A 
ATOM      8 CL   LIG    1      199.659 118.179 147.115  0.00  0.00    -0.083 Cl
ATOM      9  C   LIG    1      199.664 116.018 145.480  0.00  0.00    +0.042 A 
ATOM     10  C   LIG    1      200.283 115.063 144.683  0.00  0.00    +0.068 A 
ATOM     11 CL   LIG    1      199.296 113.868 143.901  0.00  0.00    -0.081 Cl
ATOM     12  C   LIG    1      201.686 115.067 144.516  0.00  0.00    +0.096 A 
ATOM     13  N   LIG    1      202.337 114.105 143.720  0.00  0.00    -0.235 NA
ATOM     14  C   LIG    1      203.605 114.108 143.560  0.00  0.00    +0.203 A 
ENDBRANCH   1   2
BRANCH   1  17
ATOM     15  N   LIG    1      206.166 113.971 146.143  0.00  0.00    -0.284 N 
ATOM     16  H   LIG    1      205.601 114.795 146.415  0.00  0.00    +0.155 HD
ATOM     17  C   LIG    1      206.428 113.881 144.797  0.00  0.00    +0.237 C 
ATOM     18  O   LIG    1      207.050 112.953 144.325  0.00  0.00    -0.274 OA
BRANCH  15  20
ATOM     19  C   LIG    1      205.682 112.131 147.640  0.00  0.00    -0.026 A 
ATOM     20  C   LIG    1      206.576 113.128 147.209  0.00  0.00    +0.037 A 
ATOM     21  C   LIG    1      207.836 113.260 147.803  0.00  0.00    +0.023 A 
ATOM     22  C   LIG    1      208.199 112.415 148.844  0.00  0.00    +0.002 A 
ATOM     23  C   LIG    1      207.316 111.437 149.289  0.00  0.00    +0.000 A 
ATOM     24  C   LIG    1      206.067 111.298 148.688  0.00  0.00    +0.005 A 
BRANCH  19  26
ATOM     25  C   LIG    1      203.455 113.140 147.433  0.00  0.00    +0.009 C 
ATOM     26  C   LIG    1      204.305 111.931 147.018  0.00  0.00    +0.033 C 
ENDBRANCH  19  26
ENDBRANCH  15  20
ENDBRANCH   1  17
TORSDOF 4
ENDMDL
MODEL 4
REMARK VINA RESULT:      -7.1     30.062     34.149
REMARK  Name = ZINC000006087320
REMARK                            x       y       z     vdW  Elec       q    Type
REMARK                         _______ _______ _______ _____ _____    ______ ____
ROOT
ATOM      1  C   LIG    1      154.114 138.182 179.711  0.00  0.00    +0.222 C 
ENDROOT
BRANCH   1   2
ATOM      2  N   LIG    1      155.160 137.870 180.715  0.00  0.00    -0.290 N 
ATOM      3  C   LIG    1      155.200 136.630 181.329  0.00  0.00    +0.262 A 
ATOM      4  O   LIG    1      154.329 135.813 181.017  0.00  0.00    -0.267 OA
ATOM      5  C   LIG    1      156.244 136.382 182.300  0.00  0.00    +0.068 A 
ATOM      6  C   LIG    1      156.375 135.145 182.948  0.00  0.00    +0.035 A 
ATOM      7  C   LIG    1      157.390 134.952 183.878  0.00  0.00    +0.043 A 
ATOM      8 CL   LIG    1      157.548 133.426 184.676  0.00  0.00    -0.083 Cl
ATOM      9  C   LIG    1      158.283 135.985 184.174  0.00  0.00    +0.042 A 
ATOM     10  C   LIG    1      158.157 137.212 183.535  0.00  0.00    +0.068 A 
ATOM     11 CL   LIG    1      159.285 138.473 183.929  0.00  0.00    -0.081 Cl
ATOM     12  C   LIG    1      157.131 137.427 182.588  0.00  0.00    +0.096 A 
ATOM     13  N   LIG    1      156.979 138.665 181.934  0.00  0.00    -0.235 NA
ATOM     14  C   LIG    1      156.057 138.862 181.071  0.00  0.00    +0.203 A 
ENDBRANCH   1   2
BRANCH   1  17
ATOM     15  N   LIG    1      154.713 139.591 177.780  0.00  0.00    -0.284 N 
ATOM     16  H   LIG    1      154.186 140.290 178.333  0.00  0.00    +0.155 HD
ATOM     17  C   LIG    1      154.803 138.352 178.367  0.00  0.00    +0.237 C 
ATOM     18  O   LIG    1      155.417 137.441 177.854  0.00  0.00    -0.274 OA
BRANCH  15  20
ATOM     19  C   LIG    1      156.567 140.362 176.430  0.00  0.00    -0.026 A 
ATOM     20  C   LIG    1      155.201 140.042 176.526  0.00  0.00    +0.037 A 
ATOM     21  C   LIG    1      154.365 140.143 175.409  0.00  0.00    +0.023 A 
ATOM     22  C   LIG    1      154.882 140.588 174.199  0.00  0.00    +0.002 A 
ATOM     23  C   LIG    1      156.229 140.924 174.097  0.00  0.00    +0.000 A 
ATOM     24  C   LIG    1      157.063 140.810 175.206  0.00  0.00    +0.005 A 
BRANCH  19  26
ATOM     25  C   LIG    1      157.614 141.651 178.235  0.00  0.00    +0.009 C 
ATOM     26  C   LIG    1      157.527 140.253 177.609  0.00  0.00    +0.033 C 
ENDBRANCH  19  26
ENDBRANCH  15  20
ENDBRANCH   1  17
TORSDOF 4
ENDMDL
MODEL 5
REMARK VINA RESULT:      -7.0     44.521     46.347
REMARK  Name = ZINC000006087320
REMARK                            x       y       z     vdW  Elec       q    Type
REMARK                         _______ _______ _______ _____ _____    ______ ____
ROOT
ATOM      1  C   LIG    1      195.822 133.040 141.890  0.00  0.00    +0.222 C 
ENDROOT
BRANCH   1   2
ATOM      2  N   LIG    1      195.683 131.782 141.118  0.00  0.00    -0.290 N 
ATOM      3  C   LIG    1      196.079 130.574 141.663  0.00  0.00    +0.262 A 
ATOM      4  O   LIG    1      196.560 130.593 142.799  0.00  0.00    -0.267 OA
ATOM      5  C   LIG    1      195.919 129.379 140.862  0.00  0.00    +0.068 A 
ATOM      6  C   LIG    1      196.268 128.109 141.348  0.00  0.00    +0.035 A 
ATOM      7  C   LIG    1      196.101 126.988 140.542  0.00  0.00    +0.043 A 
ATOM      8 CL   LIG    1      196.534 125.425 141.143  0.00  0.00    -0.083 Cl
ATOM      9  C   LIG    1      195.588 127.116 139.249  0.00  0.00    +0.042 A 
ATOM     10  C   LIG    1      195.242 128.371 138.764  0.00  0.00    +0.068 A 
ATOM     11 CL   LIG    1      194.607 128.493 137.152  0.00  0.00    -0.081 Cl
ATOM     12  C   LIG    1      195.405 129.522 139.567  0.00  0.00    +0.096 A 
ATOM     13  N   LIG    1      195.068 130.805 139.095  0.00  0.00    -0.235 NA
ATOM     14  C   LIG    1      195.207 131.849 139.820  0.00  0.00    +0.203 A 
ENDBRANCH   1   2
BRANCH   1  17
ATOM     15  N   LIG    1      194.173 134.871 141.934  0.00  0.00    -0.284 N 
ATOM     16  H   LIG    1      194.976 135.386 141.531  0.00  0.00    +0.155 HD
ATOM     17  C   LIG    1      194.423 133.547 142.200  0.00  0.00    +0.237 C 
ATOM     18  O   LIG    1      193.570 132.808 142.643  0.00  0.00    -0.274 OA
BRANCH  15  20
ATOM     19  C   LIG    1      192.266 136.057 141.030  0.00  0.00    -0.026 A 
ATOM     20  C   LIG    1      193.000 135.639 142.155  0.00  0.00    +0.037 A 
ATOM     21  C   LIG    1      192.564 135.953 143.447  0.00  0.00    +0.023 A 
ATOM     22  C   LIG    1      191.410 136.706 143.621  0.00  0.00    +0.002 A 
ATOM     23  C   LIG    1      190.686 137.140 142.515  0.00  0.00    +0.000 A 
ATOM     24  C   LIG    1      191.113 136.814 141.230  0.00  0.00    +0.005 A 
BRANCH  19  26
ATOM     25  C   LIG    1      191.834 134.529 139.160  0.00  0.00    +0.009 C 
ATOM     26  C   LIG    1      192.684 135.728 139.602  0.00  0.00    +0.033 C 
ENDBRANCH  19  26
ENDBRANCH  15  20
ENDBRANCH   1  17
TORSDOF 4
ENDMDL
MODEL 6
REMARK VINA RESULT:      -6.8     60.063     62.724
REMARK  Name = ZINC000006087320
REMARK                            x       y       z     vdW  Elec       q    Type
REMARK                         _______ _______ _______ _____ _____    ______ ____
ROOT
ATOM      1  C   LIG    1      200.315 112.673 146.159  0.00  0.00    +0.222 C 
ENDROOT
BRANCH   1   2
ATOM      2  N   LIG    1      199.781 113.376 144.969  0.00  0.00    -0.290 N 
ATOM      3  C   LIG    1      199.741 114.759 144.926  0.00  0.00    +0.262 A 
ATOM      4  O   LIG    1      200.151 115.370 145.917  0.00  0.00    -0.267 OA
ATOM      5  C   LIG    1      199.209 115.391 143.738  0.00  0.00    +0.068 A 
ATOM      6  C   LIG    1      199.159 116.786 143.600  0.00  0.00    +0.035 A 
ATOM      7  C   LIG    1      198.635 117.351 142.442  0.00  0.00    +0.043 A 
ATOM      8 CL   LIG    1      198.572 119.071 142.276  0.00  0.00    -0.083 Cl
ATOM      9  C   LIG    1      198.157 116.537 141.412  0.00  0.00    +0.042 A 
ATOM     10  C   LIG    1      198.205 115.155 141.545  0.00  0.00    +0.068 A 
ATOM     11 CL   LIG    1      197.601 114.174 140.244  0.00  0.00    -0.081 Cl
ATOM     12  C   LIG    1      198.732 114.563 142.714  0.00  0.00    +0.096 A 
ATOM     13  N   LIG    1      198.784 113.165 142.874  0.00  0.00    -0.235 NA
ATOM     14  C   LIG    1      199.267 112.624 143.927  0.00  0.00    +0.203 A 
ENDBRANCH   1   2
BRANCH   1  17
ATOM     15  N   LIG    1      202.600 113.349 146.787  0.00  0.00    -0.284 N 
ATOM     16  H   LIG    1      202.068 113.948 147.444  0.00  0.00    +0.155 HD
ATOM     17  C   LIG    1      201.820 112.552 145.985  0.00  0.00    +0.237 C 
ATOM     18  O   LIG    1      202.302 111.774 145.190  0.00  0.00    -0.274 OA
BRANCH  15  20
ATOM     19  C   LIG    1      204.572 114.615 146.182  0.00  0.00    -0.026 A 
ATOM     20  C   LIG    1      204.011 113.498 146.827  0.00  0.00    +0.037 A 
ATOM     21  C   LIG    1      204.824 112.584 147.506  0.00  0.00    +0.023 A 
ATOM     22  C   LIG    1      206.201 112.766 147.521  0.00  0.00    +0.002 A 
ATOM     23  C   LIG    1      206.768 113.857 146.871  0.00  0.00    +0.000 A 
ATOM     24  C   LIG    1      205.957 114.774 146.208  0.00  0.00    +0.005 A 
BRANCH  19  26
ATOM     25  C   LIG    1      203.675 115.205 143.976  0.00  0.00    +0.009 C 
ATOM     26  C   LIG    1      203.733 115.651 145.444  0.00  0.00    +0.033 C 
ENDBRANCH  19  26
ENDBRANCH  15  20
ENDBRANCH   1  17
TORSDOF 4
ENDMDL
MODEL 7
REMARK VINA RESULT:      -6.6     56.153     58.688
REMARK  Name = ZINC000006087320
REMARK                            x       y       z     vdW  Elec       q    Type
REMARK                         _______ _______ _______ _____ _____    ______ ____
ROOT
ATOM      1  C   LIG    1      198.558 117.199 143.412  0.00  0.00    +0.222 C 
ENDROOT
BRANCH   1   2
ATOM      2  N   LIG    1      198.113 117.719 144.728  0.00  0.00    -0.290 N 
ATOM      3  C   LIG    1      197.008 118.546 144.822  0.00  0.00    +0.262 A 
ATOM      4  O   LIG    1      196.427 118.839 143.773  0.00  0.00    -0.267 OA
ATOM      5  C   LIG    1      196.622 119.023 146.132  0.00  0.00    +0.068 A 
ATOM      6  C   LIG    1      195.498 119.842 146.321  0.00  0.00    +0.035 A 
ATOM      7  C   LIG    1      195.166 120.280 147.598  0.00  0.00    +0.043 A 
ATOM      8 CL   LIG    1      193.781 121.291 147.828  0.00  0.00    -0.083 Cl
ATOM      9  C   LIG    1      195.945 119.911 148.698  0.00  0.00    +0.042 A 
ATOM     10  C   LIG    1      197.058 119.100 148.515  0.00  0.00    +0.068 A 
ATOM     11 CL   LIG    1      198.003 118.662 149.905  0.00  0.00    -0.081 Cl
ATOM     12  C   LIG    1      197.412 118.646 147.225  0.00  0.00    +0.096 A 
ATOM     13  N   LIG    1      198.540 117.830 147.015  0.00  0.00    -0.235 NA
ATOM     14  C   LIG    1      198.861 117.410 145.851  0.00  0.00    +0.203 A 
ENDBRANCH   1   2
BRANCH   1  17
ATOM     15  N   LIG    1      200.928 116.547 143.242  0.00  0.00    -0.284 N 
ATOM     16  H   LIG    1      200.509 115.606 143.353  0.00  0.00    +0.155 HD
ATOM     17  C   LIG    1      200.019 117.577 143.238  0.00  0.00    +0.237 C 
ATOM     18  O   LIG    1      200.357 118.731 143.084  0.00  0.00    -0.274 OA
BRANCH  15  20
ATOM     19  C   LIG    1      203.082 116.481 144.344  0.00  0.00    -0.026 A 
ATOM     20  C   LIG    1      202.344 116.582 143.150  0.00  0.00    +0.037 A 
ATOM     21  C   LIG    1      202.995 116.685 141.917  0.00  0.00    +0.023 A 
ATOM     22  C   LIG    1      204.384 116.716 141.870  0.00  0.00    +0.002 A 
ATOM     23  C   LIG    1      205.123 116.634 143.047  0.00  0.00    +0.000 A 
ATOM     24  C   LIG    1      204.474 116.517 144.273  0.00  0.00    +0.005 A 
BRANCH  19  26
ATOM     25  C   LIG    1      202.586 114.882 146.137  0.00  0.00    +0.009 C 
ATOM     26  C   LIG    1      202.425 116.348 145.713  0.00  0.00    +0.033 C 
ENDBRANCH  19  26
ENDBRANCH  15  20
ENDBRANCH   1  17
TORSDOF 4
ENDMDL
MODEL 8
REMARK VINA RESULT:      -6.6      2.252      2.470
REMARK  Name = ZINC000006087320
REMARK                            x       y       z     vdW  Elec       q    Type
REMARK                         _______ _______ _______ _____ _____    ______ ____
ROOT
ATOM      1  C   LIG    1      164.448 161.298 155.314  0.00  0.00    +0.222 C 
ENDROOT
BRANCH   1   2
ATOM      2  N   LIG    1      163.622 161.430 156.539  0.00  0.00    -0.290 N 
ATOM      3  C   LIG    1      162.467 160.685 156.694  0.00  0.00    +0.262 A 
ATOM      4  O   LIG    1      162.151 159.927 155.772  0.00  0.00    -0.267 OA
ATOM      5  C   LIG    1      161.702 160.855 157.910  0.00  0.00    +0.068 A 
ATOM      6  C   LIG    1      160.534 160.119 158.161  0.00  0.00    +0.035 A 
ATOM      7  C   LIG    1      159.828 160.318 159.342  0.00  0.00    +0.043 A 
ATOM      8 CL   LIG    1      158.388 159.411 159.647  0.00  0.00    -0.083 Cl
ATOM      9  C   LIG    1      160.273 161.249 160.284  0.00  0.00    +0.042 A 
ATOM     10  C   LIG    1      161.429 161.981 160.039  0.00  0.00    +0.068 A 
ATOM     11 CL   LIG    1      161.953 163.130 161.232  0.00  0.00    -0.081 Cl
ATOM     12  C   LIG    1      162.159 161.793 158.845  0.00  0.00    +0.096 A 
ATOM     13  N   LIG    1      163.329 162.528 158.572  0.00  0.00    -0.235 NA
ATOM     14  C   LIG    1      163.998 162.357 157.496  0.00  0.00    +0.203 A 
ENDBRANCH   1   2
BRANCH   1  17
ATOM     15  N   LIG    1      163.022 162.837 154.021  0.00  0.00    -0.284 N 
ATOM     16  H   LIG    1      163.314 163.483 154.776  0.00  0.00    +0.155 HD
ATOM     17  C   LIG    1      163.546 161.571 154.121  0.00  0.00    +0.237 C 
ATOM     18  O   LIG    1      163.321 160.715 153.292  0.00  0.00    -0.274 OA
BRANCH  15  20
ATOM     19  C   LIG    1      160.892 163.875 153.527  0.00  0.00    -0.026 A 
ATOM     20  C   LIG    1      162.124 163.378 153.064  0.00  0.00    +0.037 A 
ATOM     21  C   LIG    1      162.453 163.442 151.706  0.00  0.00    +0.023 A 
ATOM     22  C   LIG    1      161.545 163.979 150.801  0.00  0.00    +0.002 A 
ATOM     23  C   LIG    1      160.317 164.458 151.247  0.00  0.00    +0.000 A 
ATOM     24  C   LIG    1      159.996 164.406 152.601  0.00  0.00    +0.005 A 
BRANCH  19  26
ATOM     25  C   LIG    1      158.991 163.512 155.035  0.00  0.00    +0.009 C 
ATOM     26  C   LIG    1      160.489 163.846 154.997  0.00  0.00    +0.033 C 
ENDBRANCH  19  26
ENDBRANCH  15  20
ENDBRANCH   1  17
TORSDOF 4
ENDMDL
MODEL 9
REMARK VINA RESULT:      -6.6     60.827     63.393
REMARK  Name = ZINC000006087320
REMARK                            x       y       z     vdW  Elec       q    Type
REMARK                         _______ _______ _______ _____ _____    ______ ____
ROOT
ATOM      1  C   LIG    1      202.367 112.439 146.860  0.00  0.00    +0.222 C 
ENDROOT
BRANCH   1   2
ATOM      2  N   LIG    1      201.455 113.260 146.027  0.00  0.00    -0.290 N 
ATOM      3  C   LIG    1      200.863 112.727 144.895  0.00  0.00    +0.262 A 
ATOM      4  O   LIG    1      201.137 111.559 144.607  0.00  0.00    -0.267 OA
ATOM      5  C   LIG    1      199.982 113.575 144.122  0.00  0.00    +0.068 A 
ATOM      6  C   LIG    1      199.319 113.107 142.977  0.00  0.00    +0.035 A 
ATOM      7  C   LIG    1      198.484 113.959 142.262  0.00  0.00    +0.043 A 
ATOM      8 CL   LIG    1      197.670 113.379 140.850  0.00  0.00    -0.083 Cl
ATOM      9  C   LIG    1      198.301 115.281 142.674  0.00  0.00    +0.042 A 
ATOM     10  C   LIG    1      198.957 115.749 143.806  0.00  0.00    +0.068 A 
ATOM     11 CL   LIG    1      198.706 117.398 144.289  0.00  0.00    -0.081 Cl
ATOM     12  C   LIG    1      199.809 114.899 144.546  0.00  0.00    +0.096 A 
ATOM     13  N   LIG    1      200.489 115.353 145.692  0.00  0.00    -0.235 NA
ATOM     14  C   LIG    1      201.256 114.586 146.369  0.00  0.00    +0.203 A 
ENDBRANCH   1   2
BRANCH   1  17
ATOM     15  N   LIG    1      204.103 113.424 145.415  0.00  0.00    -0.284 N 
ATOM     16  H   LIG    1      203.339 113.348 144.720  0.00  0.00    +0.155 HD
ATOM     17  C   LIG    1      203.774 112.983 146.673  0.00  0.00    +0.237 C 
ATOM     18  O   LIG    1      204.556 113.039 147.598  0.00  0.00    -0.274 OA
BRANCH  15  20
ATOM     19  C   LIG    1      205.521 115.327 144.937  0.00  0.00    -0.026 A 
ATOM     20  C   LIG    1      205.333 113.933 144.921  0.00  0.00    +0.037 A 
ATOM     21  C   LIG    1      206.342 113.083 144.455  0.00  0.00    +0.023 A 
ATOM     22  C   LIG    1      207.532 113.621 143.980  0.00  0.00    +0.002 A 
ATOM     23  C   LIG    1      207.721 115.000 143.975  0.00  0.00    +0.000 A 
ATOM     24  C   LIG    1      206.721 115.844 144.452  0.00  0.00    +0.005 A 
BRANCH  19  26
ATOM     25  C   LIG    1      203.656 116.754 144.226  0.00  0.00    +0.009 C 
ATOM     26  C   LIG    1      204.463 116.297 145.449  0.00  0.00    +0.033 C 
ENDBRANCH  19  26
ENDBRANCH  15  20
ENDBRANCH   1  17
TORSDOF 4
ENDMDL
