REMARK VINA RESULT:      -6.7     35.326     38.055
REMARK  Name = ZINC000049483930
REMARK                            x       y       z     vdW  Elec       q    Type
REMARK                         _______ _______ _______ _____ _____    ______ ____
ROOT
ATOM      1  O   LIG    1      184.702 114.272 148.140  0.00  0.00    -0.275 OA
ATOM      2  C   LIG    1      184.763 113.648 147.100  0.00  0.00    +0.226 C 
ATOM      3  N   LIG    1      183.598 113.340 146.465  0.00  0.00    -0.299 N 
ATOM      4  C   LIG    1      183.305 112.697 145.184  0.00  0.00    +0.122 C 
ATOM      5  C   LIG    1      181.803 112.947 145.525  0.00  0.00    +0.112 C 
ATOM      6  C   LIG    1      182.227 113.709 146.817  0.00  0.00    +0.122 C 
ENDROOT
BRANCH   5   7
ATOM      7  C   LIG    1      181.071 111.664 145.849  0.00  0.00    +0.234 A 
ATOM      8  O   LIG    1      180.512 110.941 144.897  0.00  0.00    -0.337 OA
ATOM      9  N   LIG    1      179.956 109.889 145.457  0.00  0.00    -0.056 NA
ATOM     10  C   LIG    1      180.197 110.006 146.718  0.00  0.00    +0.209 A 
ATOM     11  N   LIG    1      180.904 111.133 146.990  0.00  0.00    -0.191 NA
BRANCH  10  12
ATOM     12  C   LIG    1      179.766 109.045 147.726  0.00  0.00    +0.060 A 
ATOM     13  S   LIG    1      178.384 109.338 148.741  0.00  0.00    -0.093 S 
ATOM     14  C   LIG    1      178.599 107.828 149.548  0.00  0.00    +0.046 A 
ATOM     15  C   LIG    1      179.674 107.141 149.060  0.00  0.00    +0.008 A 
ATOM     16  C   LIG    1      180.334 107.828 148.030  0.00  0.00    +0.019 A 
ENDBRANCH  10  12
ENDBRANCH   5   7
BRANCH   2  17
ATOM     17  C   LIG    1      186.081 113.234 146.482  0.00  0.00    +0.174 C 
BRANCH  17  18
ATOM     18  S   LIG    1      186.290 111.470 146.927  0.00  0.00    -0.058 S 
BRANCH  18  19
ATOM     19  C   LIG    1      187.596 111.571 148.062  0.00  0.00    +0.258 A 
ATOM     20  O   LIG    1      188.422 110.492 148.178  0.00  0.00    -0.431 OA
ATOM     21  C   LIG    1      189.313 110.863 149.108  0.00  0.00    +0.156 A 
ATOM     22  C   LIG    1      190.393 110.151 149.621  0.00  0.00    +0.048 A 
ATOM     23  C   LIG    1      191.174 110.772 150.592  0.00  0.00    +0.004 A 
ATOM     24  C   LIG    1      190.862 112.075 151.025  0.00  0.00    +0.002 A 
ATOM     25  C   LIG    1      189.773 112.760 150.491  0.00  0.00    +0.031 A 
ATOM     26  C   LIG    1      188.989 112.137 149.515  0.00  0.00    +0.110 A 
ATOM     27  N   LIG    1      187.882 112.573 148.834  0.00  0.00    -0.203 NA
ENDBRANCH  18  19
ENDBRANCH  17  18
ENDBRANCH   2  17
TORSDOF 5
