MODEL 1
REMARK VINA RESULT:      -8.1      0.000      0.000
REMARK  Name = 
REMARK                            x       y       z     vdW  Elec       q    Type
REMARK                         _______ _______ _______ _____ _____    ______ ____
ROOT
ATOM      1  C   LIG    1      169.638 144.544 154.795  0.00  0.00    +0.072 C 
ATOM      2  C   LIG    1      170.889 144.122 155.687  0.00  0.00    +0.070 C 
ATOM      3  N   LIG    1      171.127 145.513 156.326  0.00  0.00    -0.269 NA
ATOM      4  C   LIG    1      172.136 146.189 155.728  0.00  0.00    +0.073 C 
ATOM      5  C   LIG    1      172.220 145.664 154.286  0.00  0.00    +0.024 C 
ATOM      6  C   LIG    1      169.957 146.277 156.441  0.00  0.00    +0.099 C 
ATOM      7  C   LIG    1      169.704 146.807 155.039  0.00  0.00    -0.013 C 
ATOM      8  C   LIG    1      172.104 144.338 154.628  0.00  0.00    +0.055 C 
ATOM      9  C   LIG    1      172.026 143.234 153.501  0.00  0.00    +0.127 C 
ATOM     10  C   LIG    1      170.611 143.543 152.854  0.00  0.00    +0.268 C 
ATOM     11  O   LIG    1      170.571 144.792 152.368  0.00  0.00    -0.209 OA
ATOM     12  N   LIG    1      171.825 142.092 154.433  0.00  0.00    -0.250 N 
ATOM     13  C   LIG    1      170.903 141.116 154.448  0.00  0.00    +0.307 C 
ATOM     14  O   LIG    1      170.816 140.178 155.260  0.00  0.00    -0.265 OA
ATOM     15  C   LIG    1      172.939 142.328 155.320  0.00  0.00    +0.053 A 
ATOM     16  C   LIG    1      173.698 141.375 155.953  0.00  0.00    +0.051 A 
ATOM     17  C   LIG    1      174.756 141.825 156.749  0.00  0.00    +0.137 A 
ATOM     18  C   LIG    1      175.029 143.151 156.897  0.00  0.00    +0.026 A 
ATOM     19  C   LIG    1      174.222 144.055 156.229  0.00  0.00    -0.003 A 
ATOM     20  C   LIG    1      173.162 143.678 155.430  0.00  0.00    -0.006 A 
ATOM     21  C   LIG    1      169.438 143.200 153.871  0.00  0.00    +0.213 C 
ATOM     22  C   LIG    1      169.547 145.763 154.232  0.00  0.00    -0.025 C 
ENDROOT
BRANCH  18  23
ATOM     23  C   LIG    1      176.140 143.548 157.792  0.00  0.00    +0.146 C 
ATOM     24  C   LIG    1      176.610 144.936 157.536  0.00  0.00    +0.068 A 
ATOM     25  C   LIG    1      177.595 145.545 158.252  0.00  0.00    -0.005 A 
ATOM     26  C   LIG    1      177.754 146.838 157.711  0.00  0.00    +0.015 A 
ATOM     27  C   LIG    1      176.850 146.975 156.673  0.00  0.00    +0.081 A 
ATOM     28  C   LIG    1      176.813 148.179 155.975  0.00  0.00    +0.019 A 
ATOM     29  C   LIG    1      177.644 149.235 156.282  0.00  0.00    +0.002 A 
ATOM     30  C   LIG    1      178.541 149.103 157.308  0.00  0.00    +0.000 A 
ATOM     31  C   LIG    1      178.570 147.914 157.991  0.00  0.00    +0.001 A 
ATOM     32  C   LIG    1      178.386 145.041 159.374  0.00  0.00    +0.045 C 
ATOM     33  C   LIG    1      179.841 144.931 159.218  0.00  0.00    +0.077 C 
ATOM     34  N   LIG    1      180.350 143.771 158.563  0.00  0.00    -0.270 NA
ATOM     35  C   LIG    1      180.603 142.626 159.412  0.00  0.00    +0.103 C 
ATOM     36  C   LIG    1      180.394 141.303 158.735  0.00  0.00    +0.141 C 
ATOM     37  C   LIG    1      178.971 141.110 158.189  0.00  0.00    +0.033 C 
ATOM     38  C   LIG    1      178.348 142.557 158.548  0.00  0.00    +0.020 C 
ATOM     39  O   LIG    1      180.556 140.322 159.742  0.00  0.00    -0.224 OA
ATOM     40  C   LIG    1      179.424 143.342 157.569  0.00  0.00    +0.072 C 
ATOM     41  N   LIG    1      176.192 145.832 156.599  0.00  0.00    -0.249 NA
ATOM     42  C   LIG    1      177.220 142.569 157.418  0.00  0.00    +0.022 C 
BRANCH  36  43
ATOM     43  C   LIG    1      181.363 141.028 157.637  0.00  0.00    +0.032 C 
ATOM     44  C   LIG    1      181.330 139.563 157.286  0.00  0.00    +0.003 C 
ENDBRANCH  36  43
BRANCH  23  45
ATOM     45  C   LIG    1      175.663 143.519 159.168  0.00  0.00    +0.325 C 
ATOM     46  O   LIG    1      174.856 144.476 159.494  0.00  0.00    -0.249 OA
BRANCH  45  47
ATOM     47  O   LIG    1      175.914 142.662 160.195  0.00  0.00    -0.444 OA
ATOM     48  C   LIG    1      175.989 143.070 161.547  0.00  0.00    +0.256 C 
ENDBRANCH  45  47
ENDBRANCH  23  45
ENDBRANCH  18  23
BRANCH   1  50
ATOM     49  C   LIG    1      168.600 143.439 156.479  0.00  0.00    +0.001 C 
ATOM     50  C   LIG    1      168.492 144.303 155.811  0.00  0.00    +0.009 C 
ENDBRANCH   1  50
BRANCH  10  51
ATOM     51  C   LIG    1      170.627 142.672 151.666  0.00  0.00    +0.350 C 
ATOM     52  O   LIG    1      169.647 142.347 150.955  0.00  0.00    -0.247 OA
BRANCH  51  53
ATOM     53  O   LIG    1      171.826 142.098 151.208  0.00  0.00    -0.443 OA
ATOM     54  C   LIG    1      171.994 141.611 149.905  0.00  0.00    +0.256 C 
ENDBRANCH  51  53
ENDBRANCH  10  51
BRANCH  17  55
ATOM     55  O   LIG    1      175.515 140.804 157.377  0.00  0.00    -0.472 OA
ATOM     56  C   LIG    1      175.030 139.493 157.510  0.00  0.00    +0.252 C 
ENDBRANCH  17  55
BRANCH  21  57
ATOM     57  O   LIG    1      168.319 143.852 153.080  0.00  0.00    -0.449 OA
BRANCH  57  58
ATOM     58  C   LIG    1      167.161 143.137 153.060  0.00  0.00    +0.318 C 
ATOM     59  O   LIG    1      166.950 141.930 152.902  0.00  0.00    -0.250 OA
ATOM     60  C   LIG    1      165.884 143.936 153.263  0.00  0.00    +0.121 C 
ENDBRANCH  57  58
ENDBRANCH  21  57
TORSDOF 10
ENDMDL
MODEL 2
REMARK VINA RESULT:      -7.9     46.299     52.667
REMARK  Name = 
REMARK                            x       y       z     vdW  Elec       q    Type
REMARK                         _______ _______ _______ _____ _____    ______ ____
ROOT
ATOM      1  C   LIG    1      195.332  99.519 154.938  0.00  0.00    +0.072 C 
ATOM      2  C   LIG    1      196.699  98.756 155.232  0.00  0.00    +0.070 C 
ATOM      3  N   LIG    1      196.071  97.361 155.483  0.00  0.00    -0.269 NA
ATOM      4  C   LIG    1      195.954  97.080 156.802  0.00  0.00    +0.073 C 
ATOM      5  C   LIG    1      195.849  98.429 157.531  0.00  0.00    +0.024 C 
ATOM      6  C   LIG    1      194.877  97.157 154.778  0.00  0.00    +0.099 C 
ATOM      7  C   LIG    1      193.828  97.927 155.564  0.00  0.00    -0.013 C 
ATOM      8  C   LIG    1      196.864  99.030 156.826  0.00  0.00    +0.055 C 
ATOM      9  C   LIG    1      197.198 100.555 157.067  0.00  0.00    +0.127 C 
ATOM     10  C   LIG    1      195.908 101.260 156.473  0.00  0.00    +0.268 C 
ATOM     11  O   LIG    1      194.804 100.857 157.118  0.00  0.00    -0.209 OA
ATOM     12  N   LIG    1      198.249 100.639 156.017  0.00  0.00    -0.250 N 
ATOM     13  C   LIG    1      198.418 101.506 155.004  0.00  0.00    +0.307 C 
ATOM     14  O   LIG    1      199.344 101.518 154.174  0.00  0.00    -0.265 OA
ATOM     15  C   LIG    1      199.059  99.514 156.419  0.00  0.00    +0.053 A 
ATOM     16  C   LIG    1      200.425  99.413 156.324  0.00  0.00    +0.051 A 
ATOM     17  C   LIG    1      201.014  98.241 156.804  0.00  0.00    +0.137 A 
ATOM     18  C   LIG    1      200.272  97.234 157.344  0.00  0.00    +0.026 A 
ATOM     19  C   LIG    1      198.900  97.405 157.408  0.00  0.00    -0.003 A 
ATOM     20  C   LIG    1      198.256  98.536 156.951  0.00  0.00    -0.006 A 
ATOM     21  C   LIG    1      195.843 101.081 154.894  0.00  0.00    +0.213 C 
ATOM     22  C   LIG    1      194.192  99.206 155.579  0.00  0.00    -0.025 C 
ENDROOT
BRANCH  18  23
ATOM     23  C   LIG    1      200.968  96.005 157.791  0.00  0.00    +0.146 C 
ATOM     24  C   LIG    1      201.541  96.139 159.157  0.00  0.00    +0.068 A 
ATOM     25  C   LIG    1      202.195  95.136 159.805  0.00  0.00    -0.005 A 
ATOM     26  C   LIG    1      202.587  95.647 161.060  0.00  0.00    +0.015 A 
ATOM     27  C   LIG    1      202.154  96.958 161.135  0.00  0.00    +0.081 A 
ATOM     28  C   LIG    1      202.423  97.684 162.293  0.00  0.00    +0.019 A 
ATOM     29  C   LIG    1      203.105  97.142 163.361  0.00  0.00    +0.002 A 
ATOM     30  C   LIG    1      203.536  95.844 163.290  0.00  0.00    +0.000 A 
ATOM     31  C   LIG    1      203.265  95.136 162.147  0.00  0.00    +0.001 A 
ATOM     32  C   LIG    1      202.480  93.769 159.369  0.00  0.00    +0.045 C 
ATOM     33  C   LIG    1      203.880  93.348 159.241  0.00  0.00    +0.077 C 
ATOM     34  N   LIG    1      204.566  93.690 158.039  0.00  0.00    -0.270 NA
ATOM     35  C   LIG    1      204.439  92.746 156.949  0.00  0.00    +0.103 C 
ATOM     36  C   LIG    1      204.466  93.374 155.586  0.00  0.00    +0.141 C 
ATOM     37  C   LIG    1      203.356  94.413 155.368  0.00  0.00    +0.033 C 
ATOM     38  C   LIG    1      202.687  94.404 156.838  0.00  0.00    +0.020 C 
ATOM     39  O   LIG    1      204.201  92.328 154.671  0.00  0.00    -0.224 OA
ATOM     40  C   LIG    1      204.078  94.937 157.553  0.00  0.00    +0.072 C 
ATOM     41  N   LIG    1      201.540  97.214 159.994  0.00  0.00    -0.249 NA
ATOM     42  C   LIG    1      202.079  95.879 156.784  0.00  0.00    +0.022 C 
BRANCH  36  43
ATOM     43  C   LIG    1      205.773  93.998 155.236  0.00  0.00    +0.032 C 
ATOM     44  C   LIG    1      206.878  92.987 155.398  0.00  0.00    +0.003 C 
ENDBRANCH  36  43
BRANCH  23  45
ATOM     45  C   LIG    1      200.000  94.919 157.854  0.00  0.00    +0.325 C 
ATOM     46  O   LIG    1      199.328  94.837 158.956  0.00  0.00    -0.249 OA
BRANCH  45  47
ATOM     47  O   LIG    1      199.663  93.953 156.955  0.00  0.00    -0.444 OA
ATOM     48  C   LIG    1      198.328  93.660 156.592  0.00  0.00    +0.256 C 
ENDBRANCH  45  47
ENDBRANCH  23  45
ENDBRANCH  18  23
BRANCH   1  50
ATOM     49  C   LIG    1      196.075  99.546 152.797  0.00  0.00    +0.001 C 
ATOM     50  C   LIG    1      195.209  99.270 153.413  0.00  0.00    +0.009 C 
ENDBRANCH   1  50
BRANCH  10  51
ATOM     51  C   LIG    1      196.107 102.657 156.893  0.00  0.00    +0.350 C 
ATOM     52  O   LIG    1      196.457 103.620 156.172  0.00  0.00    -0.247 OA
BRANCH  51  53
ATOM     53  O   LIG    1      195.906 103.044 158.231  0.00  0.00    -0.443 OA
ATOM     54  C   LIG    1      195.065 104.100 158.605  0.00  0.00    +0.256 C 
ENDBRANCH  51  53
ENDBRANCH  10  51
BRANCH  17  55
ATOM     55  O   LIG    1      202.427  98.184 156.691  0.00  0.00    -0.472 OA
ATOM     56  C   LIG    1      203.162  99.201 156.061  0.00  0.00    +0.252 C 
ENDBRANCH  17  55
BRANCH  21  57
ATOM     57  O   LIG    1      194.425 101.590 154.714  0.00  0.00    -0.449 OA
BRANCH  57  58
ATOM     58  C   LIG    1      194.289 102.523 153.732  0.00  0.00    +0.318 C 
ATOM     59  O   LIG    1      195.121 103.051 152.987  0.00  0.00    -0.250 OA
ATOM     60  C   LIG    1      192.875 103.024 153.484  0.00  0.00    +0.121 C 
ENDBRANCH  57  58
ENDBRANCH  21  57
TORSDOF 10
ENDMDL
MODEL 3
REMARK VINA RESULT:      -7.8      5.151      8.032
REMARK  Name = 
REMARK                            x       y       z     vdW  Elec       q    Type
REMARK                         _______ _______ _______ _____ _____    ______ ____
ROOT
ATOM      1  C   LIG    1      174.490 146.355 157.824  0.00  0.00    +0.072 C 
ATOM      2  C   LIG    1      174.888 146.332 159.366  0.00  0.00    +0.070 C 
ATOM      3  N   LIG    1      175.366 147.804 159.446  0.00  0.00    -0.269 NA
ATOM      4  C   LIG    1      176.714 147.911 159.388  0.00  0.00    +0.073 C 
ATOM      5  C   LIG    1      177.219 146.681 158.617  0.00  0.00    +0.024 C 
ATOM      6  C   LIG    1      174.714 148.647 158.535  0.00  0.00    +0.099 C 
ATOM      7  C   LIG    1      175.379 148.356 157.199  0.00  0.00    -0.013 C 
ATOM      8  C   LIG    1      176.416 145.782 159.278  0.00  0.00    +0.055 C 
ATOM      9  C   LIG    1      176.407 144.263 158.845  0.00  0.00    +0.127 C 
ATOM     10  C   LIG    1      175.721 144.345 157.417  0.00  0.00    +0.268 C 
ATOM     11  O   LIG    1      176.435 145.122 156.589  0.00  0.00    -0.209 OA
ATOM     12  N   LIG    1      175.346 143.848 159.802  0.00  0.00    -0.250 N 
ATOM     13  C   LIG    1      174.206 143.162 159.613  0.00  0.00    +0.307 C 
ATOM     14  O   LIG    1      173.375 142.837 160.479  0.00  0.00    -0.265 OA
ATOM     15  C   LIG    1      175.914 144.386 161.014  0.00  0.00    +0.053 A 
ATOM     16  C   LIG    1      175.822 143.844 162.273  0.00  0.00    +0.051 A 
ATOM     17  C   LIG    1      176.477 144.517 163.308  0.00  0.00    +0.137 A 
ATOM     18  C   LIG    1      177.179 145.663 163.088  0.00  0.00    +0.026 A 
ATOM     19  C   LIG    1      177.229 146.152 161.794  0.00  0.00    -0.003 A 
ATOM     20  C   LIG    1      176.604 145.538 160.728  0.00  0.00    -0.006 A 
ATOM     21  C   LIG    1      174.192 144.762 157.548  0.00  0.00    +0.213 C 
ATOM     22  C   LIG    1      175.186 147.071 156.922  0.00  0.00    -0.025 C 
ENDROOT
BRANCH  18  23
ATOM     23  C   LIG    1      177.809 146.339 164.245  0.00  0.00    +0.146 C 
ATOM     24  C   LIG    1      176.812 146.801 165.248  0.00  0.00    +0.068 A 
ATOM     25  C   LIG    1      177.143 147.416 166.416  0.00  0.00    -0.005 A 
ATOM     26  C   LIG    1      175.935 147.701 167.086  0.00  0.00    +0.015 A 
ATOM     27  C   LIG    1      174.897 147.243 166.295  0.00  0.00    +0.081 A 
ATOM     28  C   LIG    1      173.590 147.410 166.747  0.00  0.00    +0.019 A 
ATOM     29  C   LIG    1      173.298 148.013 167.951  0.00  0.00    +0.002 A 
ATOM     30  C   LIG    1      174.323 148.468 168.737  0.00  0.00    +0.000 A 
ATOM     31  C   LIG    1      175.607 148.299 168.285  0.00  0.00    +0.001 A 
ATOM     32  C   LIG    1      178.460 147.755 166.956  0.00  0.00    +0.045 C 
ATOM     33  C   LIG    1      178.781 149.167 167.195  0.00  0.00    +0.077 C 
ATOM     34  N   LIG    1      179.229 149.941 166.084  0.00  0.00    -0.270 NA
ATOM     35  C   LIG    1      180.653 149.915 165.829  0.00  0.00    +0.103 C 
ATOM     36  C   LIG    1      181.020 150.040 164.379  0.00  0.00    +0.141 C 
ATOM     37  C   LIG    1      180.419 148.935 163.496  0.00  0.00    +0.033 C 
ATOM     38  C   LIG    1      179.544 148.152 164.606  0.00  0.00    +0.020 C 
ATOM     39  O   LIG    1      182.422 149.864 164.316  0.00  0.00    -0.224 OA
ATOM     40  C   LIG    1      178.596 149.475 164.895  0.00  0.00    +0.072 C 
ATOM     41  N   LIG    1      175.452 146.718 165.217  0.00  0.00    -0.249 NA
ATOM     42  C   LIG    1      178.470 147.528 163.603  0.00  0.00    +0.022 C 
BRANCH  36  43
ATOM     43  C   LIG    1      180.676 151.361 163.782  0.00  0.00    +0.032 C 
ATOM     44  C   LIG    1      180.569 151.230 162.284  0.00  0.00    +0.003 C 
ENDBRANCH  36  43
BRANCH  23  45
ATOM     45  C   LIG    1      178.672 145.386 164.928  0.00  0.00    +0.325 C 
ATOM     46  O   LIG    1      179.663 144.935 164.229  0.00  0.00    -0.249 OA
BRANCH  45  47
ATOM     47  O   LIG    1      178.630 144.867 166.186  0.00  0.00    -0.444 OA
ATOM     48  C   LIG    1      179.546 143.897 166.658  0.00  0.00    +0.256 C 
ENDBRANCH  45  47
ENDBRANCH  23  45
ENDBRANCH  18  23
BRANCH   1  50
ATOM     49  C   LIG    1      172.374 146.312 158.631  0.00  0.00    +0.001 C 
ATOM     50  C   LIG    1      173.026 146.852 157.932  0.00  0.00    +0.009 C 
ENDBRANCH   1  50
BRANCH  10  51
ATOM     51  C   LIG    1      175.911 142.975 156.913  0.00  0.00    +0.350 C 
ATOM     52  O   LIG    1      177.001 142.388 156.712  0.00  0.00    -0.247 OA
BRANCH  51  53
ATOM     53  O   LIG    1      174.808 142.163 156.593  0.00  0.00    -0.443 OA
ATOM     54  C   LIG    1      174.715 141.430 155.403  0.00  0.00    +0.256 C 
ENDBRANCH  51  53
ENDBRANCH  10  51
BRANCH  17  55
ATOM     55  O   LIG    1      176.359 143.916 164.588  0.00  0.00    -0.472 OA
ATOM     56  C   LIG    1      176.571 142.542 164.786  0.00  0.00    +0.252 C 
ENDBRANCH  17  55
BRANCH  21  57
ATOM     57  O   LIG    1      173.948 145.013 156.072  0.00  0.00    -0.449 OA
BRANCH  57  58
ATOM     58  C   LIG    1      172.753 144.546 155.617  0.00  0.00    +0.318 C 
ATOM     59  O   LIG    1      171.949 143.748 156.110  0.00  0.00    -0.250 OA
ATOM     60  C   LIG    1      172.301 145.081 154.268  0.00  0.00    +0.121 C 
ENDBRANCH  57  58
ENDBRANCH  21  57
TORSDOF 10
ENDMDL
MODEL 4
REMARK VINA RESULT:      -7.8      2.585      9.568
REMARK  Name = 
REMARK                            x       y       z     vdW  Elec       q    Type
REMARK                         _______ _______ _______ _____ _____    ______ ____
ROOT
ATOM      1  C   LIG    1      176.511 147.149 159.129  0.00  0.00    +0.072 C 
ATOM      2  C   LIG    1      175.904 145.964 158.255  0.00  0.00    +0.070 C 
ATOM      3  N   LIG    1      175.110 146.861 157.271  0.00  0.00    -0.269 NA
ATOM      4  C   LIG    1      173.795 146.930 157.584  0.00  0.00    +0.073 C 
ATOM      5  C   LIG    1      173.691 146.676 159.096  0.00  0.00    +0.024 C 
ATOM      6  C   LIG    1      175.690 148.124 157.083  0.00  0.00    +0.099 C 
ATOM      7  C   LIG    1      175.311 148.910 158.328  0.00  0.00    -0.013 C 
ATOM      8  C   LIG    1      174.563 145.614 159.105  0.00  0.00    +0.055 C 
ATOM      9  C   LIG    1      174.967 144.935 160.472  0.00  0.00    +0.127 C 
ATOM     10  C   LIG    1      175.822 146.083 161.156  0.00  0.00    +0.268 C 
ATOM     11  O   LIG    1      175.088 147.193 161.319  0.00  0.00    -0.209 OA
ATOM     12  N   LIG    1      175.939 143.980 159.876  0.00  0.00    -0.250 N 
ATOM     13  C   LIG    1      177.216 143.707 160.192  0.00  0.00    +0.307 C 
ATOM     14  O   LIG    1      177.961 142.871 159.649  0.00  0.00    -0.265 OA
ATOM     15  C   LIG    1      175.094 143.407 158.856  0.00  0.00    +0.053 A 
ATOM     16  C   LIG    1      175.115 142.109 158.409  0.00  0.00    +0.051 A 
ATOM     17  C   LIG    1      174.182 141.755 157.429  0.00  0.00    +0.137 A 
ATOM     18  C   LIG    1      173.288 142.654 156.932  0.00  0.00    +0.026 A 
ATOM     19  C   LIG    1      173.325 143.945 157.429  0.00  0.00    -0.003 A 
ATOM     20  C   LIG    1      174.220 144.360 158.395  0.00  0.00    -0.006 A 
ATOM     21  C   LIG    1      177.187 146.312 160.372  0.00  0.00    +0.213 C 
ATOM     22  C   LIG    1      175.818 148.274 159.379  0.00  0.00    -0.025 C 
ENDROOT
BRANCH  18  23
ATOM     23  C   LIG    1      172.361 142.212 155.864  0.00  0.00    +0.146 C 
ATOM     24  C   LIG    1      173.054 141.973 154.570  0.00  0.00    +0.068 A 
ATOM     25  C   LIG    1      172.428 141.525 153.448  0.00  0.00    -0.005 A 
ATOM     26  C   LIG    1      173.411 141.429 152.441  0.00  0.00    +0.015 A 
ATOM     27  C   LIG    1      174.617 141.825 152.990  0.00  0.00    +0.081 A 
ATOM     28  C   LIG    1      175.752 141.815 152.184  0.00  0.00    +0.019 A 
ATOM     29  C   LIG    1      175.714 141.426 150.862  0.00  0.00    +0.002 A 
ATOM     30  C   LIG    1      174.522 141.035 150.315  0.00  0.00    +0.000 A 
ATOM     31  C   LIG    1      173.408 141.046 151.116  0.00  0.00    +0.001 A 
ATOM     32  C   LIG    1      171.022 141.184 153.233  0.00  0.00    +0.045 C 
ATOM     33  C   LIG    1      170.255 141.945 152.240  0.00  0.00    +0.077 C 
ATOM     34  N   LIG    1      169.710 143.199 152.645  0.00  0.00    -0.270 NA
ATOM     35  C   LIG    1      168.398 143.149 153.257  0.00  0.00    +0.103 C 
ATOM     36  C   LIG    1      168.166 144.205 154.298  0.00  0.00    +0.141 C 
ATOM     37  C   LIG    1      169.169 144.151 155.460  0.00  0.00    +0.033 C 
ATOM     38  C   LIG    1      170.122 142.955 154.937  0.00  0.00    +0.020 C 
ATOM     39  O   LIG    1      166.902 143.918 154.866  0.00  0.00    -0.224 OA
ATOM     40  C   LIG    1      170.577 143.809 153.597  0.00  0.00    +0.072 C 
ATOM     41  N   LIG    1      174.368 142.139 154.249  0.00  0.00    -0.249 NA
ATOM     42  C   LIG    1      171.435 143.391 155.734  0.00  0.00    +0.022 C 
BRANCH  36  43
ATOM     43  C   LIG    1      168.145 145.592 153.756  0.00  0.00    +0.032 C 
ATOM     44  C   LIG    1      168.534 146.567 154.837  0.00  0.00    +0.003 C 
ENDBRANCH  36  43
BRANCH  23  45
ATOM     45  C   LIG    1      171.769 140.941 156.259  0.00  0.00    +0.325 C 
ATOM     46  O   LIG    1      170.886 141.010 157.202  0.00  0.00    -0.249 OA
BRANCH  45  47
ATOM     47  O   LIG    1      171.976 139.671 155.816  0.00  0.00    -0.444 OA
ATOM     48  C   LIG    1      171.026 138.633 155.963  0.00  0.00    +0.256 C 
ENDBRANCH  45  47
ENDBRANCH  23  45
ENDBRANCH  18  23
BRANCH   1  50
ATOM     49  C   LIG    1      178.441 146.588 158.082  0.00  0.00    +0.001 C 
ATOM     50  C   LIG    1      177.799 147.446 158.319  0.00  0.00    +0.009 C 
ENDBRANCH   1  50
BRANCH  10  51
ATOM     51  C   LIG    1      176.013 145.548 162.515  0.00  0.00    +0.350 C 
ATOM     52  O   LIG    1      176.708 144.560 162.847  0.00  0.00    -0.247 OA
BRANCH  51  53
ATOM     53  O   LIG    1      175.384 146.147 163.621  0.00  0.00    -0.443 OA
ATOM     54  C   LIG    1      174.791 145.412 164.656  0.00  0.00    +0.256 C 
ENDBRANCH  51  53
ENDBRANCH  10  51
BRANCH  17  55
ATOM     55  O   LIG    1      174.237 140.403 157.004  0.00  0.00    -0.472 OA
ATOM     56  C   LIG    1      175.111 139.474 157.592  0.00  0.00    +0.252 C 
ENDBRANCH  17  55
BRANCH  21  57
ATOM     57  O   LIG    1      177.587 147.593 161.081  0.00  0.00    -0.449 OA
BRANCH  57  58
ATOM     58  C   LIG    1      178.807 147.541 161.680  0.00  0.00    +0.318 C 
ATOM     59  O   LIG    1      179.421 148.373 162.355  0.00  0.00    -0.250 OA
ATOM     60  C   LIG    1      179.577 146.241 161.506  0.00  0.00    +0.121 C 
ENDBRANCH  57  58
ENDBRANCH  21  57
TORSDOF 10
ENDMDL
MODEL 5
REMARK VINA RESULT:      -7.7     45.758     52.155
REMARK  Name = 
REMARK                            x       y       z     vdW  Elec       q    Type
REMARK                         _______ _______ _______ _____ _____    ______ ____
ROOT
ATOM      1  C   LIG    1      196.772 101.840 155.134  0.00  0.00    +0.072 C 
ATOM      2  C   LIG    1      197.716 100.976 156.083  0.00  0.00    +0.070 C 
ATOM      3  N   LIG    1      198.971 101.028 155.175  0.00  0.00    -0.269 NA
ATOM      4  C   LIG    1      199.130  99.894 154.453  0.00  0.00    +0.073 C 
ATOM      5  C   LIG    1      197.730  99.284 154.281  0.00  0.00    +0.024 C 
ATOM      6  C   LIG    1      199.038 102.186 154.388  0.00  0.00    +0.099 C 
ATOM      7  C   LIG    1      198.055 101.939 153.256  0.00  0.00    -0.013 C 
ATOM      8  C   LIG    1      197.351  99.471 155.588  0.00  0.00    +0.055 C 
ATOM      9  C   LIG    1      195.884  99.106 156.046  0.00  0.00    +0.127 C 
ATOM     10  C   LIG    1      195.032 100.206 155.283  0.00  0.00    +0.268 C 
ATOM     11  O   LIG    1      195.206 100.111 153.957  0.00  0.00    -0.209 OA
ATOM     12  N   LIG    1      196.045  99.589 157.443  0.00  0.00    -0.250 N 
ATOM     13  C   LIG    1      195.295 100.423 158.182  0.00  0.00    +0.307 C 
ATOM     14  O   LIG    1      195.492 100.763 159.362  0.00  0.00    -0.265 OA
ATOM     15  C   LIG    1      197.250  98.873 157.790  0.00  0.00    +0.053 A 
ATOM     16  C   LIG    1      197.572  98.359 159.022  0.00  0.00    +0.051 A 
ATOM     17  C   LIG    1      198.783  97.670 159.131  0.00  0.00    +0.137 A 
ATOM     18  C   LIG    1      199.617  97.512 158.065  0.00  0.00    +0.026 A 
ATOM     19  C   LIG    1      199.228  98.056 156.854  0.00  0.00    -0.003 A 
ATOM     20  C   LIG    1      198.047  98.748 156.679  0.00  0.00    -0.006 A 
ATOM     21  C   LIG    1      195.317 101.653 155.878  0.00  0.00    +0.213 C 
ATOM     22  C   LIG    1      196.852 101.764 153.794  0.00  0.00    -0.025 C 
ENDROOT
BRANCH  18  23
ATOM     23  C   LIG    1      200.902  96.806 158.273  0.00  0.00    +0.146 C 
ATOM     24  C   LIG    1      200.766  95.329 158.164  0.00  0.00    +0.068 A 
ATOM     25  C   LIG    1      201.810  94.462 158.277  0.00  0.00    -0.005 A 
ATOM     26  C   LIG    1      201.283  93.164 158.121  0.00  0.00    +0.015 A 
ATOM     27  C   LIG    1      199.920  93.284 157.914  0.00  0.00    +0.081 A 
ATOM     28  C   LIG    1      199.169  92.126 157.730  0.00  0.00    +0.019 A 
ATOM     29  C   LIG    1      199.735  90.870 157.746  0.00  0.00    +0.002 A 
ATOM     30  C   LIG    1      201.083  90.746 157.951  0.00  0.00    +0.000 A 
ATOM     31  C   LIG    1      201.817  91.892 158.132  0.00  0.00    +0.001 A 
ATOM     32  C   LIG    1      203.229  94.731 158.513  0.00  0.00    +0.045 C 
ATOM     33  C   LIG    1      203.855  94.197 159.728  0.00  0.00    +0.077 C 
ATOM     34  N   LIG    1      203.692  94.937 160.936  0.00  0.00    -0.270 NA
ATOM     35  C   LIG    1      204.676  95.971 161.180  0.00  0.00    +0.103 C 
ATOM     36  C   LIG    1      204.145  97.157 161.931  0.00  0.00    +0.141 C 
ATOM     37  C   LIG    1      202.972  97.856 161.226  0.00  0.00    +0.033 C 
ATOM     38  C   LIG    1      202.792  96.867 159.962  0.00  0.00    +0.020 C 
ATOM     39  O   LIG    1      205.198  98.102 161.958  0.00  0.00    -0.224 OA
ATOM     40  C   LIG    1      202.421  95.580 160.930  0.00  0.00    +0.072 C 
ATOM     41  N   LIG    1      199.651  94.577 157.946  0.00  0.00    -0.249 NA
ATOM     42  C   LIG    1      201.251  97.181 159.688  0.00  0.00    +0.022 C 
BRANCH  36  43
ATOM     43  C   LIG    1      203.740  96.851 163.332  0.00  0.00    +0.032 C 
ATOM     44  C   LIG    1      203.590  98.134 164.109  0.00  0.00    +0.003 C 
ENDBRANCH  36  43
BRANCH  23  45
ATOM     45  C   LIG    1      201.831  97.214 157.228  0.00  0.00    +0.325 C 
ATOM     46  O   LIG    1      202.527  98.273 157.488  0.00  0.00    -0.249 OA
BRANCH  45  47
ATOM     47  O   LIG    1      202.108  96.683 156.006  0.00  0.00    -0.444 OA
ATOM     48  C   LIG    1      202.465  97.464 154.882  0.00  0.00    +0.256 C 
ENDBRANCH  45  47
ENDBRANCH  23  45
ENDBRANCH  18  23
BRANCH   1  50
ATOM     49  C   LIG    1      197.142 103.406 156.729  0.00  0.00    +0.001 C 
ATOM     50  C   LIG    1      197.113 103.264 155.641  0.00  0.00    +0.009 C 
ENDBRANCH   1  50
BRANCH  10  51
ATOM     51  C   LIG    1      193.656  99.739 155.521  0.00  0.00    +0.350 C 
ATOM     52  O   LIG    1      192.640 100.448 155.712  0.00  0.00    -0.247 OA
BRANCH  51  53
ATOM     53  O   LIG    1      193.355  98.365 155.557  0.00  0.00    -0.443 OA
ATOM     54  C   LIG    1      192.510  97.791 156.515  0.00  0.00    +0.256 C 
ENDBRANCH  51  53
ENDBRANCH  10  51
BRANCH  17  55
ATOM     55  O   LIG    1      199.069  97.152 160.420  0.00  0.00    -0.472 OA
ATOM     56  C   LIG    1      198.063  96.637 161.253  0.00  0.00    +0.252 C 
ENDBRANCH  17  55
BRANCH  21  57
ATOM     57  O   LIG    1      194.606 102.437 154.790  0.00  0.00    -0.449 OA
BRANCH  57  58
ATOM     58  C   LIG    1      193.874 103.488 155.249  0.00  0.00    +0.318 C 
ATOM     59  O   LIG    1      193.440 104.493 154.676  0.00  0.00    -0.250 OA
ATOM     60  C   LIG    1      193.510 103.449 156.725  0.00  0.00    +0.121 C 
ENDBRANCH  57  58
ENDBRANCH  21  57
TORSDOF 10
ENDMDL
MODEL 6
REMARK VINA RESULT:      -7.6      6.321      9.607
REMARK  Name = 
REMARK                            x       y       z     vdW  Elec       q    Type
REMARK                         _______ _______ _______ _____ _____    ______ ____
ROOT
ATOM      1  C   LIG    1      175.191 147.102 158.665  0.00  0.00    +0.072 C 
ATOM      2  C   LIG    1      175.546 147.229 160.212  0.00  0.00    +0.070 C 
ATOM      3  N   LIG    1      175.607 148.778 160.252  0.00  0.00    -0.269 NA
ATOM      4  C   LIG    1      176.877 149.243 160.208  0.00  0.00    +0.073 C 
ATOM      5  C   LIG    1      177.712 148.174 159.485  0.00  0.00    +0.024 C 
ATOM      6  C   LIG    1      174.773 149.389 159.305  0.00  0.00    +0.099 C 
ATOM      7  C   LIG    1      175.520 149.251 157.988  0.00  0.00    -0.013 C 
ATOM      8  C   LIG    1      177.166 147.110 160.163  0.00  0.00    +0.055 C 
ATOM      9  C   LIG    1      177.576 145.634 159.780  0.00  0.00    +0.127 C 
ATOM     10  C   LIG    1      176.926 145.489 158.341  0.00  0.00    +0.268 C 
ATOM     11  O   LIG    1      177.422 146.406 157.498  0.00  0.00    -0.209 OA
ATOM     12  N   LIG    1      176.646 144.974 160.734  0.00  0.00    -0.250 N 
ATOM     13  C   LIG    1      175.737 144.001 160.553  0.00  0.00    +0.307 C 
ATOM     14  O   LIG    1      175.005 143.488 161.417  0.00  0.00    -0.265 OA
ATOM     15  C   LIG    1      177.021 145.679 161.937  0.00  0.00    +0.053 A 
ATOM     16  C   LIG    1      177.050 145.167 163.211  0.00  0.00    +0.051 A 
ATOM     17  C   LIG    1      177.477 146.019 164.233  0.00  0.00    +0.137 A 
ATOM     18  C   LIG    1      177.849 147.306 163.985  0.00  0.00    +0.026 A 
ATOM     19  C   LIG    1      177.794 147.755 162.677  0.00  0.00    -0.003 A 
ATOM     20  C   LIG    1      177.381 146.966 161.623  0.00  0.00    -0.006 A 
ATOM     21  C   LIG    1      175.338 145.480 158.437  0.00  0.00    +0.213 C 
ATOM     22  C   LIG    1      175.687 147.954 157.750  0.00  0.00    -0.025 C 
ENDROOT
BRANCH  18  23
ATOM     23  C   LIG    1      178.248 148.159 165.129  0.00  0.00    +0.146 C 
ATOM     24  C   LIG    1      177.103 148.491 166.019  0.00  0.00    +0.068 A 
ATOM     25  C   LIG    1      177.220 149.230 167.157  0.00  0.00    -0.005 A 
ATOM     26  C   LIG    1      175.928 149.328 167.714  0.00  0.00    +0.015 A 
ATOM     27  C   LIG    1      175.059 148.638 166.889  0.00  0.00    +0.081 A 
ATOM     28  C   LIG    1      173.710 148.589 167.232  0.00  0.00    +0.019 A 
ATOM     29  C   LIG    1      173.214 149.202 168.362  0.00  0.00    +0.002 A 
ATOM     30  C   LIG    1      174.071 149.887 169.182  0.00  0.00    +0.000 A 
ATOM     31  C   LIG    1      175.399 149.930 168.837  0.00  0.00    +0.001 A 
ATOM     32  C   LIG    1      178.404 149.839 167.761  0.00  0.00    +0.045 C 
ATOM     33  C   LIG    1      178.446 151.298 167.912  0.00  0.00    +0.077 C 
ATOM     34  N   LIG    1      178.840 152.070 166.779  0.00  0.00    -0.270 NA
ATOM     35  C   LIG    1      180.263 152.291 166.629  0.00  0.00    +0.103 C 
ATOM     36  C   LIG    1      180.722 152.389 165.204  0.00  0.00    +0.141 C 
ATOM     37  C   LIG    1      180.405 151.139 164.369  0.00  0.00    +0.033 C 
ATOM     38  C   LIG    1      179.594 150.280 165.471  0.00  0.00    +0.020 C 
ATOM     39  O   LIG    1      182.134 152.471 165.256  0.00  0.00    -0.224 OA
ATOM     40  C   LIG    1      178.404 151.420 165.588  0.00  0.00    +0.072 C 
ATOM     41  N   LIG    1      175.788 148.157 165.898  0.00  0.00    -0.249 NA
ATOM     42  C   LIG    1      178.738 149.406 164.445  0.00  0.00    +0.022 C 
BRANCH  36  43
ATOM     43  C   LIG    1      180.198 153.583 164.483  0.00  0.00    +0.032 C 
ATOM     44  C   LIG    1      180.278 153.355 162.996  0.00  0.00    +0.003 C 
ENDBRANCH  36  43
BRANCH  23  45
ATOM     45  C   LIG    1      179.207 147.426 165.944  0.00  0.00    +0.325 C 
ATOM     46  O   LIG    1      180.342 147.176 165.375  0.00  0.00    -0.249 OA
BRANCH  45  47
ATOM     47  O   LIG    1      179.132 146.942 167.214  0.00  0.00    -0.444 OA
ATOM     48  C   LIG    1      180.255 146.470 167.933  0.00  0.00    +0.256 C 
ENDBRANCH  45  47
ENDBRANCH  23  45
ENDBRANCH  18  23
BRANCH   1  50
ATOM     49  C   LIG    1      173.148 146.525 159.456  0.00  0.00    +0.001 C 
ATOM     50  C   LIG    1      173.644 147.188 158.737  0.00  0.00    +0.009 C 
ENDBRANCH   1  50
BRANCH  10  51
ATOM     51  C   LIG    1      177.489 144.207 157.883  0.00  0.00    +0.350 C 
ATOM     52  O   LIG    1      176.855 143.211 157.462  0.00  0.00    -0.247 OA
BRANCH  51  53
ATOM     53  O   LIG    1      178.878 143.987 157.887  0.00  0.00    -0.443 OA
ATOM     54  C   LIG    1      179.454 142.720 157.719  0.00  0.00    +0.256 C 
ENDBRANCH  51  53
ENDBRANCH  10  51
BRANCH  17  55
ATOM     55  O   LIG    1      177.497 145.445 165.529  0.00  0.00    -0.472 OA
ATOM     56  C   LIG    1      177.684 144.067 165.728  0.00  0.00    +0.252 C 
ENDBRANCH  17  55
BRANCH  21  57
ATOM     57  O   LIG    1      175.068 145.616 156.950  0.00  0.00    -0.449 OA
BRANCH  57  58
ATOM     58  C   LIG    1      174.070 144.814 156.490  0.00  0.00    +0.318 C 
ATOM     59  O   LIG    1      173.650 143.723 156.889  0.00  0.00    -0.250 OA
ATOM     60  C   LIG    1      173.319 145.323 155.270  0.00  0.00    +0.121 C 
ENDBRANCH  57  58
ENDBRANCH  21  57
TORSDOF 10
ENDMDL
MODEL 7
REMARK VINA RESULT:      -7.3     36.295     40.827
REMARK  Name = 
REMARK                            x       y       z     vdW  Elec       q    Type
REMARK                         _______ _______ _______ _____ _____    ______ ____
ROOT
ATOM      1  C   LIG    1      182.802 179.182 165.222  0.00  0.00    +0.072 C 
ATOM      2  C   LIG    1      182.214 179.922 166.504  0.00  0.00    +0.070 C 
ATOM      3  N   LIG    1      181.713 178.647 167.229  0.00  0.00    -0.269 NA
ATOM      4  C   LIG    1      180.383 178.456 167.075  0.00  0.00    +0.073 C 
ATOM      5  C   LIG    1      179.992 179.138 165.754  0.00  0.00    +0.024 C 
ATOM      6  C   LIG    1      182.465 177.504 166.921  0.00  0.00    +0.099 C 
ATOM      7  C   LIG    1      181.977 177.084 165.543  0.00  0.00    -0.013 C 
ATOM      8  C   LIG    1      180.715 180.283 165.987  0.00  0.00    +0.055 C 
ATOM      9  C   LIG    1      180.795 181.406 164.879  0.00  0.00    +0.127 C 
ATOM     10  C   LIG    1      181.654 180.684 163.758  0.00  0.00    +0.268 C 
ATOM     11  O   LIG    1      181.042 179.569 163.331  0.00  0.00    -0.209 OA
ATOM     12  N   LIG    1      181.732 182.283 165.631  0.00  0.00    -0.250 N 
ATOM     13  C   LIG    1      182.894 182.851 165.268  0.00  0.00    +0.307 C 
ATOM     14  O   LIG    1      183.614 183.594 165.959  0.00  0.00    -0.265 OA
ATOM     15  C   LIG    1      181.011 182.364 166.878  0.00  0.00    +0.053 A 
ATOM     16  C   LIG    1      180.950 183.448 167.720  0.00  0.00    +0.051 A 
ATOM     17  C   LIG    1      180.162 183.323 168.868  0.00  0.00    +0.137 A 
ATOM     18  C   LIG    1      179.481 182.177 169.149  0.00  0.00    +0.026 A 
ATOM     19  C   LIG    1      179.589 181.125 168.256  0.00  0.00    -0.003 A 
ATOM     20  C   LIG    1      180.349 181.183 167.106  0.00  0.00    -0.006 A 
ATOM     21  C   LIG    1      183.150 180.460 164.249  0.00  0.00    +0.213 C 
ATOM     22  C   LIG    1      182.217 178.087 164.704  0.00  0.00    -0.025 C 
ENDROOT
BRANCH  18  23
ATOM     23  C   LIG    1      178.703 182.108 170.408  0.00  0.00    +0.146 C 
ATOM     24  C   LIG    1      177.860 180.885 170.491  0.00  0.00    +0.068 A 
ATOM     25  C   LIG    1      177.083 180.574 171.564  0.00  0.00    -0.005 A 
ATOM     26  C   LIG    1      176.442 179.354 171.264  0.00  0.00    +0.015 A 
ATOM     27  C   LIG    1      176.856 178.958 170.005  0.00  0.00    +0.081 A 
ATOM     28  C   LIG    1      176.356 177.768 169.482  0.00  0.00    +0.019 A 
ATOM     29  C   LIG    1      175.466 176.975 170.174  0.00  0.00    +0.002 A 
ATOM     30  C   LIG    1      175.053 177.364 171.420  0.00  0.00    +0.000 A 
ATOM     31  C   LIG    1      175.551 178.537 171.929  0.00  0.00    +0.001 A 
ATOM     32  C   LIG    1      176.888 181.296 172.820  0.00  0.00    +0.045 C 
ATOM     33  C   LIG    1      175.543 181.779 173.155  0.00  0.00    +0.077 C 
ATOM     34  N   LIG    1      175.121 183.014 172.580  0.00  0.00    -0.270 NA
ATOM     35  C   LIG    1      175.466 184.207 173.323  0.00  0.00    +0.103 C 
ATOM     36  C   LIG    1      175.724 185.412 172.466  0.00  0.00    +0.141 C 
ATOM     37  C   LIG    1      176.860 185.211 171.451  0.00  0.00    +0.033 C 
ATOM     38  C   LIG    1      177.211 183.661 171.745  0.00  0.00    +0.020 C 
ATOM     39  O   LIG    1      176.168 186.427 173.346  0.00  0.00    -0.224 OA
ATOM     40  C   LIG    1      175.704 183.160 171.288  0.00  0.00    +0.072 C 
ATOM     41  N   LIG    1      177.693 179.887 169.579  0.00  0.00    -0.249 NA
ATOM     42  C   LIG    1      177.824 183.325 170.309  0.00  0.00    +0.022 C 
BRANCH  36  43
ATOM     43  C   LIG    1      174.521 185.902 171.737  0.00  0.00    +0.032 C 
ATOM     44  C   LIG    1      173.966 187.117 172.433  0.00  0.00    +0.003 C 
ENDBRANCH  36  43
BRANCH  23  45
ATOM     45  C   LIG    1      179.633 182.047 171.527  0.00  0.00    +0.325 C 
ATOM     46  O   LIG    1      180.311 180.950 171.625  0.00  0.00    -0.249 OA
BRANCH  45  47
ATOM     47  O   LIG    1      179.926 182.942 172.509  0.00  0.00    -0.444 OA
ATOM     48  C   LIG    1      181.230 183.441 172.742  0.00  0.00    +0.256 C 
ENDBRANCH  45  47
ENDBRANCH  23  45
ENDBRANCH  18  23
BRANCH   1  50
ATOM     49  C   LIG    1      184.814 179.722 166.113  0.00  0.00    +0.001 C 
ATOM     50  C   LIG    1      184.235 178.874 165.725  0.00  0.00    +0.009 C 
ENDBRANCH   1  50
BRANCH  10  51
ATOM     51  C   LIG    1      181.544 181.632 162.636  0.00  0.00    +0.350 C 
ATOM     52  O   LIG    1      181.465 181.354 161.417  0.00  0.00    -0.247 OA
BRANCH  51  53
ATOM     53  O   LIG    1      181.519 183.020 162.864  0.00  0.00    -0.443 OA
ATOM     54  C   LIG    1      182.213 183.940 162.068  0.00  0.00    +0.256 C 
ENDBRANCH  51  53
ENDBRANCH  10  51
BRANCH  17  55
ATOM     55  O   LIG    1      180.125 184.469 169.703  0.00  0.00    -0.472 OA
ATOM     56  C   LIG    1      181.045 185.520 169.562  0.00  0.00    +0.252 C 
ENDBRANCH  17  55
BRANCH  21  57
ATOM     57  O   LIG    1      183.575 179.544 163.116  0.00  0.00    -0.449 OA
BRANCH  57  58
ATOM     58  C   LIG    1      184.474 180.099 162.259  0.00  0.00    +0.318 C 
ATOM     59  O   LIG    1      184.699 179.887 161.062  0.00  0.00    -0.250 OA
ATOM     60  C   LIG    1      185.378 181.170 162.847  0.00  0.00    +0.121 C 
ENDBRANCH  57  58
ENDBRANCH  21  57
TORSDOF 10
ENDMDL
MODEL 8
REMARK VINA RESULT:      -7.2     30.449     35.480
REMARK  Name = 
REMARK                            x       y       z     vdW  Elec       q    Type
REMARK                         _______ _______ _______ _____ _____    ______ ____
ROOT
ATOM      1  C   LIG    1      177.106 172.206 174.113  0.00  0.00    +0.072 C 
ATOM      2  C   LIG    1      178.023 173.165 173.231  0.00  0.00    +0.070 C 
ATOM      3  N   LIG    1      177.590 174.491 173.906  0.00  0.00    -0.269 NA
ATOM      4  C   LIG    1      176.668 175.163 173.177  0.00  0.00    +0.073 C 
ATOM      5  C   LIG    1      175.919 174.112 172.342  0.00  0.00    +0.024 C 
ATOM      6  C   LIG    1      177.209 174.332 175.246  0.00  0.00    +0.099 C 
ATOM      7  C   LIG    1      175.808 173.743 175.180  0.00  0.00    -0.013 C 
ATOM      8  C   LIG    1      177.049 173.430 171.957  0.00  0.00    +0.055 C 
ATOM      9  C   LIG    1      176.921 172.106 171.106  0.00  0.00    +0.127 C 
ATOM     10  C   LIG    1      176.267 171.115 172.157  0.00  0.00    +0.268 C 
ATOM     11  O   LIG    1      175.084 171.582 172.582  0.00  0.00    -0.209 OA
ATOM     12  N   LIG    1      178.377 171.806 171.088  0.00  0.00    -0.250 N 
ATOM     13  C   LIG    1      179.052 170.686 171.397  0.00  0.00    +0.307 C 
ATOM     14  O   LIG    1      180.282 170.510 171.336  0.00  0.00    -0.265 OA
ATOM     15  C   LIG    1      178.864 173.080 170.616  0.00  0.00    +0.053 A 
ATOM     16  C   LIG    1      179.946 173.292 169.797  0.00  0.00    +0.051 A 
ATOM     17  C   LIG    1      180.224 174.613 169.434  0.00  0.00    +0.137 A 
ATOM     18  C   LIG    1      179.462 175.653 169.872  0.00  0.00    +0.026 A 
ATOM     19  C   LIG    1      178.387 175.365 170.695  0.00  0.00    -0.003 A 
ATOM     20  C   LIG    1      178.058 174.085 171.091  0.00  0.00    -0.006 A 
ATOM     21  C   LIG    1      177.292 170.775 173.325  0.00  0.00    +0.213 C 
ATOM     22  C   LIG    1      175.886 172.582 174.537  0.00  0.00    -0.025 C 
ENDROOT
BRANCH  18  23
ATOM     23  C   LIG    1      179.848 177.028 169.478  0.00  0.00    +0.146 C 
ATOM     24  C   LIG    1      178.769 178.019 169.733  0.00  0.00    +0.068 A 
ATOM     25  C   LIG    1      178.894 179.353 169.491  0.00  0.00    -0.005 A 
ATOM     26  C   LIG    1      177.670 179.951 169.854  0.00  0.00    +0.015 A 
ATOM     27  C   LIG    1      176.831 178.951 170.311  0.00  0.00    +0.081 A 
ATOM     28  C   LIG    1      175.549 179.296 170.733  0.00  0.00    +0.019 A 
ATOM     29  C   LIG    1      175.091 180.595 170.711  0.00  0.00    +0.002 A 
ATOM     30  C   LIG    1      175.918 181.588 170.259  0.00  0.00    +0.000 A 
ATOM     31  C   LIG    1      177.179 181.240 169.846  0.00  0.00    +0.001 A 
ATOM     32  C   LIG    1      180.031 180.106 168.964  0.00  0.00    +0.045 C 
ATOM     33  C   LIG    1      179.870 180.832 167.699  0.00  0.00    +0.077 C 
ATOM     34  N   LIG    1      180.019 180.094 166.488  0.00  0.00    -0.270 NA
ATOM     35  C   LIG    1      181.369 179.992 165.973  0.00  0.00    +0.103 C 
ATOM     36  C   LIG    1      181.652 178.711 165.243  0.00  0.00    +0.141 C 
ATOM     37  C   LIG    1      181.439 177.456 166.102  0.00  0.00    +0.033 C 
ATOM     38  C   LIG    1      180.889 178.146 167.455  0.00  0.00    +0.020 C 
ATOM     39  O   LIG    1      183.033 178.738 164.935  0.00  0.00    -0.224 OA
ATOM     40  C   LIG    1      179.561 178.759 166.687  0.00  0.00    +0.072 C 
ATOM     41  N   LIG    1      177.514 177.823 170.225  0.00  0.00    -0.249 NA
ATOM     42  C   LIG    1      180.069 176.888 167.996  0.00  0.00    +0.022 C 
BRANCH  36  43
ATOM     43  C   LIG    1      180.881 178.555 163.978  0.00  0.00    +0.032 C 
ATOM     44  C   LIG    1      181.142 179.733 163.075  0.00  0.00    +0.003 C 
ENDBRANCH  36  43
BRANCH  23  45
ATOM     45  C   LIG    1      180.988 177.440 170.285  0.00  0.00    +0.325 C 
ATOM     46  O   LIG    1      180.723 177.711 171.522  0.00  0.00    -0.249 OA
BRANCH  45  47
ATOM     47  O   LIG    1      182.305 177.598 169.977  0.00  0.00    -0.444 OA
ATOM     48  C   LIG    1      183.353 176.996 170.713  0.00  0.00    +0.256 C 
ENDBRANCH  45  47
ENDBRANCH  23  45
ENDBRANCH  18  23
BRANCH   1  50
ATOM     49  C   LIG    1      179.065 171.571 175.058  0.00  0.00    +0.001 C 
ATOM     50  C   LIG    1      178.062 171.943 175.305  0.00  0.00    +0.009 C 
ENDBRANCH   1  50
BRANCH  10  51
ATOM     51  C   LIG    1      175.939 169.954 171.313  0.00  0.00    +0.350 C 
ATOM     52  O   LIG    1      176.221 168.753 171.537  0.00  0.00    -0.247 OA
BRANCH  51  53
ATOM     53  O   LIG    1      175.235 170.114 170.106  0.00  0.00    -0.443 OA
ATOM     54  C   LIG    1      175.465 169.321 168.974  0.00  0.00    +0.256 C 
ENDBRANCH  51  53
ENDBRANCH  10  51
BRANCH  17  55
ATOM     55  O   LIG    1      181.346 174.781 168.583  0.00  0.00    -0.472 OA
ATOM     56  C   LIG    1      182.505 174.000 168.718  0.00  0.00    +0.252 C 
ENDBRANCH  17  55
BRANCH  21  57
ATOM     57  O   LIG    1      176.298 170.086 174.241  0.00  0.00    -0.449 OA
BRANCH  57  58
ATOM     58  C   LIG    1      176.732 168.897 174.740  0.00  0.00    +0.318 C 
ATOM     59  O   LIG    1      177.728 168.216 174.475  0.00  0.00    -0.250 OA
ATOM     60  C   LIG    1      175.859 168.269 175.815  0.00  0.00    +0.121 C 
ENDBRANCH  57  58
ENDBRANCH  21  57
TORSDOF 10
ENDMDL
MODEL 9
REMARK VINA RESULT:      -7.2     46.927     52.133
REMARK  Name = 
REMARK                            x       y       z     vdW  Elec       q    Type
REMARK                         _______ _______ _______ _____ _____    ______ ____
ROOT
ATOM      1  C   LIG    1      197.273 101.121 155.503  0.00  0.00    +0.072 C 
ATOM      2  C   LIG    1      198.389 100.862 156.610  0.00  0.00    +0.070 C 
ATOM      3  N   LIG    1      199.590 101.366 155.769  0.00  0.00    -0.269 NA
ATOM      4  C   LIG    1      200.296 100.350 155.219  0.00  0.00    +0.073 C 
ATOM      5  C   LIG    1      199.320  99.173 155.062  0.00  0.00    +0.024 C 
ATOM      6  C   LIG    1      199.237 102.349 154.834  0.00  0.00    +0.099 C 
ATOM      7  C   LIG    1      198.582 101.581 153.698  0.00  0.00    -0.013 C 
ATOM      8  C   LIG    1      198.760  99.307 156.309  0.00  0.00    +0.055 C 
ATOM      9  C   LIG    1      197.552  98.384 156.737  0.00  0.00    +0.127 C 
ATOM     10  C   LIG    1      196.397  98.914 155.787  0.00  0.00    +0.268 C 
ATOM     11  O   LIG    1      196.736  98.771 154.498  0.00  0.00    -0.209 OA
ATOM     12  N   LIG    1      197.341  99.028 158.061  0.00  0.00    -0.250 N 
ATOM     13  C   LIG    1      196.232  99.519 158.638  0.00  0.00    +0.307 C 
ATOM     14  O   LIG    1      196.137 100.030 159.768  0.00  0.00    -0.265 OA
ATOM     15  C   LIG    1      198.692  98.954 158.564  0.00  0.00    +0.053 A 
ATOM     16  C   LIG    1      199.070  98.761 159.871  0.00  0.00    +0.051 A 
ATOM     17  C   LIG    1      200.440  98.689 160.136  0.00  0.00    +0.137 A 
ATOM     18  C   LIG    1      201.369  98.805 159.147  0.00  0.00    +0.026 A 
ATOM     19  C   LIG    1      200.916  98.997 157.853  0.00  0.00    -0.003 A 
ATOM     20  C   LIG    1      199.578  99.078 157.524  0.00  0.00    -0.006 A 
ATOM     21  C   LIG    1      195.969 100.392 156.190  0.00  0.00    +0.213 C 
ATOM     22  C   LIG    1      197.520 100.952 154.192  0.00  0.00    -0.025 C 
ENDROOT
BRANCH  18  23
ATOM     23  C   LIG    1      202.803  98.760 159.515  0.00  0.00    +0.146 C 
ATOM     24  C   LIG    1      203.265  97.385 159.845  0.00  0.00    +0.068 A 
ATOM     25  C   LIG    1      204.549  97.077 160.177  0.00  0.00    -0.005 A 
ATOM     26  C   LIG    1      204.587  95.688 160.419  0.00  0.00    +0.015 A 
ATOM     27  C   LIG    1      203.312  95.191 160.223  0.00  0.00    +0.081 A 
ATOM     28  C   LIG    1      203.092  93.828 160.403  0.00  0.00    +0.019 A 
ATOM     29  C   LIG    1      204.100  92.961 160.769  0.00  0.00    +0.002 A 
ATOM     30  C   LIG    1      205.363  93.450 160.964  0.00  0.00    +0.000 A 
ATOM     31  C   LIG    1      205.572  94.794 160.784  0.00  0.00    +0.001 A 
ATOM     32  C   LIG    1      205.722  97.944 160.285  0.00  0.00    +0.045 C 
ATOM     33  C   LIG    1      206.391  98.065 161.586  0.00  0.00    +0.077 C 
ATOM     34  N   LIG    1      205.842  98.981 162.530  0.00  0.00    -0.270 NA
ATOM     35  C   LIG    1      206.316 100.345 162.437  0.00  0.00    +0.103 C 
ATOM     36  C   LIG    1      205.297 101.377 162.825  0.00  0.00    +0.141 C 
ATOM     37  C   LIG    1      204.016 101.323 161.979  0.00  0.00    +0.033 C 
ATOM     38  C   LIG    1      204.354 100.037 161.062  0.00  0.00    +0.020 C 
ATOM     39  O   LIG    1      205.891 102.632 162.547  0.00  0.00    -0.224 OA
ATOM     40  C   LIG    1      204.426  99.033 162.373  0.00  0.00    +0.072 C 
ATOM     41  N   LIG    1      202.557  96.222 159.885  0.00  0.00    -0.249 NA
ATOM     42  C   LIG    1      202.845  99.619 160.750  0.00  0.00    +0.022 C 
BRANCH  36  43
ATOM     43  C   LIG    1      204.916 101.335 164.264  0.00  0.00    +0.032 C 
ATOM     44  C   LIG    1      206.147 101.483 165.121  0.00  0.00    +0.003 C 
ENDBRANCH  36  43
BRANCH  23  45
ATOM     45  C   LIG    1      203.592  99.199 158.373  0.00  0.00    +0.325 C 
ATOM     46  O   LIG    1      203.632 100.479 158.186  0.00  0.00    -0.249 OA
BRANCH  45  47
ATOM     47  O   LIG    1      204.305  98.504 157.445  0.00  0.00    -0.444 OA
ATOM     48  C   LIG    1      203.707  97.777 156.389  0.00  0.00    +0.256 C 
ENDBRANCH  45  47
ENDBRANCH  23  45
ENDBRANCH  18  23
BRANCH   1  50
ATOM     49  C   LIG    1      196.763 102.844 156.883  0.00  0.00    +0.001 C 
ATOM     50  C   LIG    1      196.915 102.594 155.826  0.00  0.00    +0.009 C 
ENDBRANCH   1  50
BRANCH  10  51
ATOM     51  C   LIG    1      195.338  97.918 156.017  0.00  0.00    +0.350 C 
ATOM     52  O   LIG    1      194.100  98.096 155.926  0.00  0.00    -0.247 OA
BRANCH  51  53
ATOM     53  O   LIG    1      195.655  96.597 156.383  0.00  0.00    -0.443 OA
ATOM     54  C   LIG    1      194.792  95.779 157.124  0.00  0.00    +0.256 C 
ENDBRANCH  51  53
ENDBRANCH  10  51
BRANCH  17  55
ATOM     55  O   LIG    1      200.782  98.483 161.497  0.00  0.00    -0.472 OA
ATOM     56  C   LIG    1      199.938  97.788 162.378  0.00  0.00    +0.252 C 
ENDBRANCH  17  55
BRANCH  21  57
ATOM     57  O   LIG    1      195.111 100.669 154.970  0.00  0.00    -0.449 OA
BRANCH  57  58
ATOM     58  C   LIG    1      193.925 101.274 155.248  0.00  0.00    +0.318 C 
ATOM     59  O   LIG    1      193.093 101.816 154.513  0.00  0.00    -0.250 OA
ATOM     60  C   LIG    1      193.524 101.305 156.715  0.00  0.00    +0.121 C 
ENDBRANCH  57  58
ENDBRANCH  21  57
TORSDOF 10
ENDMDL
