REMARK VINA RESULT:      -5.7     30.896     33.194
REMARK  Name = ZINC000000622877
REMARK                            x       y       z     vdW  Elec       q    Type
REMARK                         _______ _______ _______ _____ _____    ______ ____
ROOT
ATOM      1  O   LIG    1      188.215  86.469 154.578  0.00  0.00    -0.274 OA
ATOM      2  C   LIG    1      188.262  87.194 155.559  0.00  0.00    +0.235 C 
ATOM      3  N   LIG    1      188.473  86.658 156.793  0.00  0.00    -0.219 N 
ATOM      4  H   LIG    1      188.698  87.262 157.601  0.00  0.00    +0.176 HD
ENDROOT
BRANCH   3   5
ATOM      5  N   LIG    1      188.660  85.208 156.986  0.00  0.00    -0.217 N 
ATOM      6  C   LIG    1      189.927  84.601 156.993  0.00  0.00    +0.079 A 
ATOM      7  C   LIG    1      189.825  83.301 157.370  0.00  0.00    +0.078 A 
ATOM      8  S   LIG    1      188.193  82.802 157.677  0.00  0.00    -0.033 S 
ATOM      9  C   LIG    1      187.599  84.389 157.302  0.00  0.00    +0.308 A 
ATOM     10  O   LIG    1      186.405  84.762 157.291  0.00  0.00    -0.258 OA
BRANCH   6  11
ATOM     11  C   LIG    1      191.134  85.329 156.629  0.00  0.00    +0.001 A 
ATOM     12  C   LIG    1      191.678  85.226 155.341  0.00  0.00    +0.010 A 
ATOM     13  C   LIG    1      192.836  85.917 155.001  0.00  0.00    +0.001 A 
ATOM     14  C   LIG    1      193.468  86.724 155.941  0.00  0.00    +0.000 A 
ATOM     15  C   LIG    1      192.938  86.838 157.223  0.00  0.00    +0.001 A 
ATOM     16  C   LIG    1      191.780  86.147 157.562  0.00  0.00    +0.010 A 
ENDBRANCH   6  11
ENDBRANCH   3   5
BRANCH   2  17
ATOM     17  C   LIG    1      188.100  88.698 155.455  0.00  0.00    +0.132 C 
BRANCH  17  18
ATOM     18  C   LIG    1      189.451  89.341 155.740  0.00  0.00    -0.039 A 
ATOM     19  C   LIG    1      189.664  90.040 156.928  0.00  0.00    +0.005 A 
ATOM     20  C   LIG    1      190.906  90.611 157.193  0.00  0.00    +0.015 A 
ATOM     21  C   LIG    1      191.944  90.487 156.273  0.00  0.00    +0.018 A 
ATOM     22 BR   LIG    1      193.631  91.261 156.637  0.00  0.00    -0.050 Br
ATOM     23  C   LIG    1      191.734  89.792 155.086  0.00  0.00    +0.015 A 
ATOM     24  C   LIG    1      190.492  89.223 154.819  0.00  0.00    +0.005 A 
ENDBRANCH  17  18
ENDBRANCH   2  17
TORSDOF 4
