REMARK VINA RESULT:      -8.6      0.000      0.000
REMARK  Name = 
REMARK                            x       y       z     vdW  Elec       q    Type
REMARK                         _______ _______ _______ _____ _____    ______ ____
ROOT
ATOM      1  C   LIG    1      205.145 113.494 144.562  0.00  0.00    +0.072 C 
ATOM      2  C   LIG    1      204.235 113.785 143.278  0.00  0.00    +0.070 C 
ATOM      3  N   LIG    1      205.394 114.097 142.304  0.00  0.00    -0.269 NA
ATOM      4  C   LIG    1      205.156 115.371 141.787  0.00  0.00    +0.073 C 
ATOM      5  C   LIG    1      204.991 116.135 143.110  0.00  0.00    +0.024 C 
ATOM      6  C   LIG    1      206.650 113.705 142.682  0.00  0.00    +0.099 C 
ATOM      7  C   LIG    1      207.070 114.498 143.903  0.00  0.00    -0.013 C 
ATOM      8  C   LIG    1      203.842 115.310 143.593  0.00  0.00    +0.055 C 
ATOM      9  C   LIG    1      203.753 115.443 145.182  0.00  0.00    +0.120 C 
ATOM     10  C   LIG    1      203.027 114.078 145.608  0.00  0.00    +0.268 C 
ATOM     11  O   LIG    1      202.824 114.505 146.938  0.00  0.00    -0.209 OA
ATOM     12  N   LIG    1      202.427 116.264 145.247  0.00  0.00    -0.304 N 
ATOM     13  C   LIG    1      201.967 116.842 146.477  0.00  0.00    +0.112 C 
ATOM     14  C   LIG    1      201.862 116.305 143.991  0.00  0.00    +0.047 A 
ATOM     15  C   LIG    1      200.635 116.819 143.648  0.00  0.00    +0.051 A 
ATOM     16  C   LIG    1      200.142 116.831 142.363  0.00  0.00    +0.137 A 
ATOM     17  C   LIG    1      200.937 116.296 141.392  0.00  0.00    +0.026 A 
ATOM     18  C   LIG    1      202.166 115.782 141.748  0.00  0.00    -0.003 A 
ATOM     19  C   LIG    1      202.660 115.769 143.032  0.00  0.00    -0.007 A 
ATOM     20  C   LIG    1      204.180 112.954 145.724  0.00  0.00    +0.213 C 
ATOM     21  C   LIG    1      206.168 114.302 144.865  0.00  0.00    -0.025 C 
ENDROOT
BRANCH  17  22
ATOM     22  C   LIG    1      200.460 116.310 139.964  0.00  0.00    +0.146 C 
ATOM     23  C   LIG    1      199.242 115.549 139.724  0.00  0.00    +0.068 A 
ATOM     24  C   LIG    1      198.512 115.433 138.590  0.00  0.00    -0.005 A 
ATOM     25  C   LIG    1      197.423 114.626 138.865  0.00  0.00    +0.015 A 
ATOM     26  C   LIG    1      197.510 114.262 140.176  0.00  0.00    +0.081 A 
ATOM     27  C   LIG    1      196.588 113.448 140.818  0.00  0.00    +0.019 A 
ATOM     28  C   LIG    1      195.525 112.976 140.106  0.00  0.00    +0.002 A 
ATOM     29  C   LIG    1      195.417 113.330 138.781  0.00  0.00    +0.000 A 
ATOM     30  C   LIG    1      196.350 114.150 138.149  0.00  0.00    +0.001 A 
ATOM     31  C   LIG    1      198.847 116.089 137.253  0.00  0.00    +0.045 C 
ATOM     32  C   LIG    1      199.342 115.046 136.272  0.00  0.00    +0.077 C 
ATOM     33  N   LIG    1      200.729 115.358 135.842  0.00  0.00    -0.270 NA
ATOM     34  C   LIG    1      201.432 114.169 135.506  0.00  0.00    +0.103 C 
ATOM     35  C   LIG    1      202.499 113.710 136.401  0.00  0.00    +0.141 C 
ATOM     36  C   LIG    1      202.376 113.945 137.851  0.00  0.00    +0.033 C 
ATOM     37  C   LIG    1      201.026 114.835 138.112  0.00  0.00    +0.020 C 
ATOM     38  O   LIG    1      203.777 114.184 136.004  0.00  0.00    -0.224 OA
ATOM     39  C   LIG    1      201.466 115.920 136.957  0.00  0.00    +0.072 C 
ATOM     40  N   LIG    1      198.598 114.823 140.663  0.00  0.00    -0.249 NA
ATOM     41  C   LIG    1      201.646 115.732 139.269  0.00  0.00    +0.022 C 
BRANCH  35  42
ATOM     42  C   LIG    1      202.613 112.180 136.230  0.00  0.00    +0.032 C 
ATOM     43  C   LIG    1      201.550 111.918 135.145  0.00  0.00    +0.003 C 
ENDBRANCH  35  42
BRANCH  22  44
ATOM     44  C   LIG    1      200.185 117.732 139.720  0.00  0.00    +0.325 C 
ATOM     45  O   LIG    1      201.169 118.479 139.631  0.00  0.00    -0.249 OA
BRANCH  44  46
ATOM     46  O   LIG    1      198.967 118.350 139.577  0.00  0.00    -0.444 OA
ATOM     47  C   LIG    1      198.902 119.761 139.528  0.00  0.00    +0.256 C 
ENDBRANCH  44  46
ENDBRANCH  22  44
ENDBRANCH  17  22
BRANCH   1  49
ATOM     48  C   LIG    1      204.830 111.231 144.365  0.00  0.00    +0.001 C 
ATOM     49  C   LIG    1      205.687 112.092 144.132  0.00  0.00    +0.009 C 
ENDBRANCH   1  49
BRANCH  10  50
ATOM     50  C   LIG    1      201.856 113.630 145.093  0.00  0.00    +0.350 C 
ATOM     51  O   LIG    1      200.886 113.642 145.916  0.00  0.00    -0.247 OA
BRANCH  50  52
ATOM     52  O   LIG    1      201.339 113.139 143.913  0.00  0.00    -0.443 OA
ATOM     53  C   LIG    1      200.018 113.068 143.490  0.00  0.00    +0.256 C 
ENDBRANCH  50  52
ENDBRANCH  10  50
BRANCH  16  54
ATOM     54  O   LIG    1      198.862 117.380 142.098  0.00  0.00    -0.472 OA
ATOM     55  C   LIG    1      197.927 117.464 143.161  0.00  0.00    +0.252 C 
ENDBRANCH  16  54
BRANCH  20  56
ATOM     56  O   LIG    1      204.968 113.542 146.862  0.00  0.00    -0.449 OA
BRANCH  56  57
ATOM     57  C   LIG    1      205.760 112.773 147.641  0.00  0.00    +0.318 C 
ATOM     58  O   LIG    1      206.872 113.189 148.041  0.00  0.00    -0.250 OA
ATOM     59  C   LIG    1      205.344 111.397 148.057  0.00  0.00    +0.121 C 
ENDBRANCH  56  57
ENDBRANCH  20  56
TORSDOF 10
