REMARK VINA RESULT:      -6.1     52.433     55.235
REMARK  Name = ZINC000049399659
REMARK                            x       y       z     vdW  Elec       q    Type
REMARK                         _______ _______ _______ _____ _____    ______ ____
ROOT
ATOM      1  C   LIG    1      196.988 116.920 153.470  0.00  0.00    +0.173 C 
ENDROOT
BRANCH   1   4
ATOM      2  N   LIG    1      197.559 114.895 154.744  0.00  0.00    -0.282 N 
ATOM      3  H   LIG    1      198.231 114.762 153.974  0.00  0.00    +0.155 HD
ATOM      4  C   LIG    1      196.705 115.961 154.606  0.00  0.00    +0.228 C 
ATOM      5  O   LIG    1      195.765 116.115 155.358  0.00  0.00    -0.275 OA
BRANCH   2   7
ATOM      6  C   LIG    1      198.379 114.118 156.865  0.00  0.00    +0.141 A 
ATOM      7  C   LIG    1      197.595 113.865 155.728  0.00  0.00    +0.077 A 
ATOM      8  C   LIG    1      196.887 112.666 155.617  0.00  0.00    +0.047 A 
ATOM      9  C   LIG    1      196.984 111.721 156.638  0.00  0.00    +0.043 A 
ATOM     10 CL   LIG    1      196.116 110.228 156.515  0.00  0.00    -0.083 Cl
ATOM     11  C   LIG    1      197.773 111.967 157.766  0.00  0.00    +0.024 A 
ATOM     12  C   LIG    1      198.471 113.167 157.882  0.00  0.00    +0.049 A 
BRANCH   6  14
ATOM     13  C   LIG    1      198.737 116.401 157.877  0.00  0.00    +0.277 C 
ATOM     14  O   LIG    1      199.053 115.339 156.947  0.00  0.00    -0.493 OA
ENDBRANCH   6  14
ENDBRANCH   2   7
ENDBRANCH   1   4
BRANCH   1  15
ATOM     15  S   LIG    1      195.358 117.427 152.802  0.00  0.00    -0.077 S 
BRANCH  15  16
ATOM     16  C   LIG    1      195.786 118.670 151.669  0.00  0.00    +0.190 A 
ATOM     17  N   LIG    1      195.387 118.522 150.405  0.00  0.00    -0.207 NA
ATOM     18  C   LIG    1      195.708 119.467 149.538  0.00  0.00    +0.126 A 
ATOM     19  C   LIG    1      196.437 120.585 149.929  0.00  0.00    +0.063 A 
ATOM     20  C   LIG    1      196.826 120.676 151.248  0.00  0.00    +0.117 A 
ATOM     21  N   LIG    1      196.504 119.721 152.110  0.00  0.00    -0.230 NA
BRANCH  18  22
ATOM     22  N   LIG    1      195.296 119.327 148.217  0.00  0.00    -0.315 N 
ATOM     23  C   LIG    1      196.239 118.646 147.310  0.00  0.00    +0.106 C 
ATOM     24  C   LIG    1      195.936 119.181 145.898  0.00  0.00    +0.019 C 
ATOM     25  C   LIG    1      194.478 118.826 145.559  0.00  0.00    +0.003 C 
ATOM     26  C   LIG    1      193.533 119.493 146.573  0.00  0.00    +0.019 C 
ATOM     27  C   LIG    1      193.880 118.967 147.979  0.00  0.00    +0.106 C 
ENDBRANCH  18  22
ENDBRANCH  15  16
ENDBRANCH   1  15
TORSDOF 6
