REMARK VINA RESULT:      -5.7      5.216      8.278
REMARK  Name = ZINC000049409419
REMARK                            x       y       z     vdW  Elec       q    Type
REMARK                         _______ _______ _______ _____ _____    ______ ____
ROOT
ATOM      1  N   LIG    1      167.415 150.907 149.023  0.00  0.00    -0.282 N 
ATOM      2  H   LIG    1      167.955 150.395 149.740  0.00  0.00    +0.155 HD
ATOM      3  C   LIG    1      167.320 150.296 147.798  0.00  0.00    +0.226 C 
ATOM      4  O   LIG    1      166.575 150.721 146.941  0.00  0.00    -0.275 OA
ENDROOT
BRANCH   1   9
ATOM      5  C   LIG    1      165.731 154.491 150.447  0.00  0.00    +0.142 A 
ATOM      6  C   LIG    1      164.919 153.344 150.388  0.00  0.00    +0.084 A 
ATOM      7 CL   LIG    1      163.260 153.400 150.885  0.00  0.00    -0.080 Cl
ATOM      8  C   LIG    1      165.446 152.141 149.919  0.00  0.00    +0.050 A 
ATOM      9  C   LIG    1      166.784 152.086 149.517  0.00  0.00    +0.077 A 
ATOM     10  C   LIG    1      167.586 153.238 149.568  0.00  0.00    +0.145 A 
ATOM     11  C   LIG    1      167.064 154.443 150.037  0.00  0.00    +0.094 A 
BRANCH   5  13
ATOM     12  C   LIG    1      165.678 156.477 152.010  0.00  0.00    +0.277 C 
ATOM     13  O   LIG    1      165.171 155.674 150.922  0.00  0.00    -0.494 OA
ENDBRANCH   5  13
BRANCH  10  14
ATOM     14  O   LIG    1      168.908 153.137 149.130  0.00  0.00    -0.493 OA
ATOM     15  C   LIG    1      170.031 152.732 149.946  0.00  0.00    +0.277 C 
ENDBRANCH  10  14
ENDBRANCH   1   9
BRANCH   3  16
ATOM     16  C   LIG    1      168.158 149.065 147.572  0.00  0.00    +0.193 C 
BRANCH  16  17
ATOM     17  C   LIG    1      167.838 148.166 148.734  0.00  0.00    +0.226 A 
ATOM     18  O   LIG    1      166.823 147.351 148.689  0.00  0.00    -0.419 OA
ATOM     19  C   LIG    1      166.815 146.729 149.849  0.00  0.00    +0.255 A 
ATOM     20  N   LIG    1      167.794 147.151 150.586  0.00  0.00    -0.107 NA
ATOM     21  N   LIG    1      168.458 148.091 149.850  0.00  0.00    -0.112 NA
BRANCH  19  22
ATOM     22  C   LIG    1      165.798 145.730 150.142  0.00  0.00    +0.079 A 
ATOM     23  C   LIG    1      164.708 145.815 150.990  0.00  0.00    -0.031 A 
ATOM     24  C   LIG    1      164.356 147.036 151.814  0.00  0.00    +0.045 C 
ATOM     25  C   LIG    1      163.944 144.639 151.017  0.00  0.00    +0.012 A 
ATOM     26  C   LIG    1      164.435 143.660 150.202  0.00  0.00    +0.046 A 
ATOM     27  S   LIG    1      165.859 144.169 149.379  0.00  0.00    -0.092 S 
ENDBRANCH  19  22
ENDBRANCH  16  17
ENDBRANCH   3  16
TORSDOF 6
