REMARK VINA RESULT:      -6.9      3.978      7.581
REMARK  Name = ZINC000006087141
REMARK                            x       y       z     vdW  Elec       q    Type
REMARK                         _______ _______ _______ _____ _____    ______ ____
ROOT
ATOM      1  C   LIG    1      160.282 160.941 159.931  0.00  0.00    +0.222 C 
ENDROOT
BRANCH   1   2
ATOM      2  N   LIG    1      161.281 161.260 160.982  0.00  0.00    -0.290 N 
ATOM      3  C   LIG    1      161.373 162.541 161.494  0.00  0.00    +0.262 A 
ATOM      4  O   LIG    1      160.630 163.399 161.014  0.00  0.00    -0.267 OA
ATOM      5  C   LIG    1      162.319 162.785 162.560  0.00  0.00    +0.068 A 
ATOM      6  C   LIG    1      162.475 164.055 163.136  0.00  0.00    +0.035 A 
ATOM      7  C   LIG    1      163.396 164.245 164.160  0.00  0.00    +0.043 A 
ATOM      8 CL   LIG    1      163.581 165.811 164.870  0.00  0.00    -0.083 Cl
ATOM      9  C   LIG    1      164.171 163.178 164.620  0.00  0.00    +0.042 A 
ATOM     10  C   LIG    1      164.019 161.917 164.055  0.00  0.00    +0.068 A 
ATOM     11 CL   LIG    1      165.000 160.615 164.652  0.00  0.00    -0.081 Cl
ATOM     12  C   LIG    1      163.085 161.704 163.016  0.00  0.00    +0.096 A 
ATOM     13  N   LIG    1      162.899 160.433 162.438  0.00  0.00    -0.235 NA
ATOM     14  C   LIG    1      162.054 160.235 161.500  0.00  0.00    +0.203 A 
ENDBRANCH   1   2
BRANCH   1  17
ATOM     15  N   LIG    1      161.664 162.065 158.229  0.00  0.00    -0.281 N 
ATOM     16  H   LIG    1      161.500 162.887 158.843  0.00  0.00    +0.155 HD
ATOM     17  C   LIG    1      161.027 160.912 158.609  0.00  0.00    +0.237 C 
ATOM     18  O   LIG    1      161.001 159.934 157.890  0.00  0.00    -0.274 OA
BRANCH  15  20
ATOM     19  C   LIG    1      163.764 162.169 157.063  0.00  0.00    +0.141 A 
ATOM     20  C   LIG    1      162.376 162.358 157.035  0.00  0.00    +0.076 A 
ATOM     21  C   LIG    1      161.752 162.792 155.862  0.00  0.00    +0.030 A 
ATOM     22  C   LIG    1      162.519 163.056 154.726  0.00  0.00    -0.048 A 
ATOM     23  C   LIG    1      161.847 163.524 153.454  0.00  0.00    +0.044 C 
ATOM     24  C   LIG    1      163.902 162.868 154.762  0.00  0.00    +0.007 A 
ATOM     25  C   LIG    1      164.528 162.426 155.926  0.00  0.00    +0.048 A 
BRANCH  19  27
ATOM     26  C   LIG    1      164.872 160.394 158.466  0.00  0.00    +0.277 C 
ATOM     27  O   LIG    1      164.346 161.721 158.248  0.00  0.00    -0.493 OA
ENDBRANCH  19  27
ENDBRANCH  15  20
ENDBRANCH   1  17
TORSDOF 4
