MODEL 1
REMARK VINA RESULT:      -7.4      0.000      0.000
REMARK  Name = ZINC000006087141
REMARK                            x       y       z     vdW  Elec       q    Type
REMARK                         _______ _______ _______ _____ _____    ______ ____
ROOT
ATOM      1  C   LIG    1      163.249 159.501 156.416  0.00  0.00    +0.222 C 
ENDROOT
BRANCH   1   2
ATOM      2  N   LIG    1      163.089 160.765 155.655  0.00  0.00    -0.290 N 
ATOM      3  C   LIG    1      164.043 161.763 155.746  0.00  0.00    +0.262 A 
ATOM      4  O   LIG    1      164.992 161.572 156.510  0.00  0.00    -0.267 OA
ATOM      5  C   LIG    1      163.872 162.948 154.936  0.00  0.00    +0.068 A 
ATOM      6  C   LIG    1      164.793 164.007 154.969  0.00  0.00    +0.035 A 
ATOM      7  C   LIG    1      164.591 165.128 154.173  0.00  0.00    +0.043 A 
ATOM      8 CL   LIG    1      165.732 166.428 154.213  0.00  0.00    -0.083 Cl
ATOM      9  C   LIG    1      163.473 165.211 153.340  0.00  0.00    +0.042 A 
ATOM     10  C   LIG    1      162.558 164.165 153.302  0.00  0.00    +0.068 A 
ATOM     11 CL   LIG    1      161.181 164.303 152.255  0.00  0.00    -0.081 Cl
ATOM     12  C   LIG    1      162.750 163.015 154.100  0.00  0.00    +0.096 A 
ATOM     13  N   LIG    1      161.848 161.934 154.068  0.00  0.00    -0.235 NA
ATOM     14  C   LIG    1      162.018 160.891 154.787  0.00  0.00    +0.203 A 
ENDBRANCH   1   2
BRANCH   1  17
ATOM     15  N   LIG    1      161.950 159.986 158.452  0.00  0.00    -0.281 N 
ATOM     16  H   LIG    1      162.826 160.475 158.723  0.00  0.00    +0.155 HD
ATOM     17  C   LIG    1      161.994 159.327 157.251  0.00  0.00    +0.237 C 
ATOM     18  O   LIG    1      161.100 158.584 156.901  0.00  0.00    -0.274 OA
BRANCH  15  20
ATOM     19  C   LIG    1      161.398 159.862 160.789  0.00  0.00    +0.141 A 
ATOM     20  C   LIG    1      160.953 159.964 159.463  0.00  0.00    +0.076 A 
ATOM     21  C   LIG    1      159.586 160.062 159.190  0.00  0.00    +0.030 A 
ATOM     22  C   LIG    1      158.666 160.036 160.238  0.00  0.00    -0.048 A 
ATOM     23  C   LIG    1      157.185 160.143 159.946  0.00  0.00    +0.044 C 
ATOM     24  C   LIG    1      159.115 159.931 161.556  0.00  0.00    +0.007 A 
ATOM     25  C   LIG    1      160.478 159.844 161.835  0.00  0.00    +0.048 A 
BRANCH  19  27
ATOM     26  C   LIG    1      163.563 160.795 161.677  0.00  0.00    +0.277 C 
ATOM     27  O   LIG    1      162.770 159.781 161.021  0.00  0.00    -0.493 OA
ENDBRANCH  19  27
ENDBRANCH  15  20
ENDBRANCH   1  17
TORSDOF 4
ENDMDL
MODEL 2
REMARK VINA RESULT:      -7.3      1.457      2.527
REMARK  Name = ZINC000006087141
REMARK                            x       y       z     vdW  Elec       q    Type
REMARK                         _______ _______ _______ _____ _____    ______ ____
ROOT
ATOM      1  C   LIG    1      163.983 160.183 157.564  0.00  0.00    +0.222 C 
ENDROOT
BRANCH   1   2
ATOM      2  N   LIG    1      163.940 161.297 156.584  0.00  0.00    -0.290 N 
ATOM      3  C   LIG    1      162.863 161.436 155.728  0.00  0.00    +0.262 A 
ATOM      4  O   LIG    1      161.977 160.580 155.788  0.00  0.00    -0.267 OA
ATOM      5  C   LIG    1      162.840 162.573 154.836  0.00  0.00    +0.068 A 
ATOM      6  C   LIG    1      161.785 162.788 153.936  0.00  0.00    +0.035 A 
ATOM      7  C   LIG    1      161.803 163.896 153.096  0.00  0.00    +0.043 A 
ATOM      8 CL   LIG    1      160.496 164.160 151.993  0.00  0.00    -0.083 Cl
ATOM      9  C   LIG    1      162.868 164.798 153.140  0.00  0.00    +0.042 A 
ATOM     10  C   LIG    1      163.915 164.591 154.030  0.00  0.00    +0.068 A 
ATOM     11 CL   LIG    1      165.223 165.733 154.056  0.00  0.00    -0.081 Cl
ATOM     12  C   LIG    1      163.912 163.473 154.895  0.00  0.00    +0.096 A 
ATOM     13  N   LIG    1      164.952 163.250 155.817  0.00  0.00    -0.235 NA
ATOM     14  C   LIG    1      164.952 162.241 156.603  0.00  0.00    +0.203 A 
ENDBRANCH   1   2
BRANCH   1  17
ATOM     15  N   LIG    1      162.050 159.565 158.960  0.00  0.00    -0.281 N 
ATOM     16  H   LIG    1      162.051 158.729 158.344  0.00  0.00    +0.155 HD
ATOM     17  C   LIG    1      162.986 160.520 158.658  0.00  0.00    +0.237 C 
ATOM     18  O   LIG    1      162.978 161.610 159.192  0.00  0.00    -0.274 OA
BRANCH  15  20
ATOM     19  C   LIG    1      161.264 159.372 161.224  0.00  0.00    +0.141 A 
ATOM     20  C   LIG    1      160.965 159.616 159.877  0.00  0.00    +0.076 A 
ATOM     21  C   LIG    1      159.655 159.915 159.494  0.00  0.00    +0.030 A 
ATOM     22  C   LIG    1      158.643 159.949 160.453  0.00  0.00    -0.048 A 
ATOM     23  C   LIG    1      157.223 160.274 160.042  0.00  0.00    +0.044 C 
ATOM     24  C   LIG    1      158.946 159.703 161.793  0.00  0.00    +0.007 A 
ATOM     25  C   LIG    1      160.254 159.415 162.183  0.00  0.00    +0.048 A 
BRANCH  19  27
ATOM     26  C   LIG    1      163.021 157.943 162.328  0.00  0.00    +0.277 C 
ATOM     27  O   LIG    1      162.585 159.092 161.568  0.00  0.00    -0.493 OA
ENDBRANCH  19  27
ENDBRANCH  15  20
ENDBRANCH   1  17
TORSDOF 4
ENDMDL
MODEL 3
REMARK VINA RESULT:      -7.2     78.218     79.585
REMARK  Name = ZINC000006087141
REMARK                            x       y       z     vdW  Elec       q    Type
REMARK                         _______ _______ _______ _____ _____    ______ ____
ROOT
ATOM      1  C   LIG    1      196.054  90.004 158.227  0.00  0.00    +0.222 C 
ENDROOT
BRANCH   1   2
ATOM      2  N   LIG    1      197.523  90.204 158.277  0.00  0.00    -0.290 N 
ATOM      3  C   LIG    1      198.092  91.351 157.751  0.00  0.00    +0.262 A 
ATOM      4  O   LIG    1      197.337  92.161 157.211  0.00  0.00    -0.267 OA
ATOM      5  C   LIG    1      199.520  91.526 157.881  0.00  0.00    +0.068 A 
ATOM      6  C   LIG    1      200.176  92.660 157.376  0.00  0.00    +0.035 A 
ATOM      7  C   LIG    1      201.553  92.789 157.523  0.00  0.00    +0.043 A 
ATOM      8 CL   LIG    1      202.356  94.190 156.904  0.00  0.00    -0.083 Cl
ATOM      9  C   LIG    1      202.290  91.795 158.170  0.00  0.00    +0.042 A 
ATOM     10  C   LIG    1      201.646  90.671 158.673  0.00  0.00    +0.068 A 
ATOM     11 CL   LIG    1      202.595  89.456 159.471  0.00  0.00    -0.081 Cl
ATOM     12  C   LIG    1      200.247  90.525 158.538  0.00  0.00    +0.096 A 
ATOM     13  N   LIG    1      199.568  89.404 159.054  0.00  0.00    -0.235 NA
ATOM     14  C   LIG    1      198.303  89.268 158.935  0.00  0.00    +0.203 A 
ENDBRANCH   1   2
BRANCH   1  17
ATOM     15  N   LIG    1      195.214  90.194 155.919  0.00  0.00    -0.281 N 
ATOM     16  H   LIG    1      194.993  91.161 156.230  0.00  0.00    +0.155 HD
ATOM     17  C   LIG    1      195.739  89.373 156.883  0.00  0.00    +0.237 C 
ATOM     18  O   LIG    1      195.882  88.182 156.695  0.00  0.00    -0.274 OA
BRANCH  15  20
ATOM     19  C   LIG    1      193.381  89.877 154.397  0.00  0.00    +0.141 A 
ATOM     20  C   LIG    1      194.766  89.883 154.607  0.00  0.00    +0.076 A 
ATOM     21  C   LIG    1      195.636  89.613 153.548  0.00  0.00    +0.030 A 
ATOM     22  C   LIG    1      195.120  89.318 152.285  0.00  0.00    -0.048 A 
ATOM     23  C   LIG    1      196.059  89.027 151.135  0.00  0.00    +0.044 C 
ATOM     24  C   LIG    1      193.739  89.311 152.083  0.00  0.00    +0.007 A 
ATOM     25  C   LIG    1      192.866  89.590 153.134  0.00  0.00    +0.048 A 
BRANCH  19  27
ATOM     26  C   LIG    1      191.720  89.204 156.168  0.00  0.00    +0.277 C 
ATOM     27  O   LIG    1      192.547  90.166 155.476  0.00  0.00    -0.493 OA
ENDBRANCH  19  27
ENDBRANCH  15  20
ENDBRANCH   1  17
TORSDOF 4
ENDMDL
MODEL 4
REMARK VINA RESULT:      -7.1     78.215     79.756
REMARK  Name = ZINC000006087141
REMARK                            x       y       z     vdW  Elec       q    Type
REMARK                         _______ _______ _______ _____ _____    ______ ____
ROOT
ATOM      1  C   LIG    1      195.963  89.807 158.079  0.00  0.00    +0.222 C 
ENDROOT
BRANCH   1   2
ATOM      2  N   LIG    1      197.316  90.416 158.099  0.00  0.00    -0.290 N 
ATOM      3  C   LIG    1      198.391  89.719 158.623  0.00  0.00    +0.262 A 
ATOM      4  O   LIG    1      198.165  88.607 159.103  0.00  0.00    -0.267 OA
ATOM      5  C   LIG    1      199.698  90.332 158.560  0.00  0.00    +0.068 A 
ATOM      6  C   LIG    1      200.840  89.694 159.068  0.00  0.00    +0.035 A 
ATOM      7  C   LIG    1      202.080  90.319 158.987  0.00  0.00    +0.043 A 
ATOM      8 CL   LIG    1      203.485  89.525 159.609  0.00  0.00    -0.083 Cl
ATOM      9  C   LIG    1      202.196  91.583 158.404  0.00  0.00    +0.042 A 
ATOM     10  C   LIG    1      201.069  92.219 157.898  0.00  0.00    +0.068 A 
ATOM     11 CL   LIG    1      201.252  93.789 157.181  0.00  0.00    -0.081 Cl
ATOM     12  C   LIG    1      199.802  91.597 157.967  0.00  0.00    +0.096 A 
ATOM     13  N   LIG    1      198.647  92.213 157.447  0.00  0.00    -0.235 NA
ATOM     14  C   LIG    1      197.499  91.653 157.505  0.00  0.00    +0.203 A 
ENDBRANCH   1   2
BRANCH   1  17
ATOM     15  N   LIG    1      195.043  90.041 155.806  0.00  0.00    -0.281 N 
ATOM     16  H   LIG    1      194.640  90.908 156.212  0.00  0.00    +0.155 HD
ATOM     17  C   LIG    1      195.748  89.255 156.682  0.00  0.00    +0.237 C 
ATOM     18  O   LIG    1      196.123  88.141 156.376  0.00  0.00    -0.274 OA
BRANCH  15  20
ATOM     19  C   LIG    1      193.254  89.778 154.221  0.00  0.00    +0.141 A 
ATOM     20  C   LIG    1      194.633  89.771 154.473  0.00  0.00    +0.076 A 
ATOM     21  C   LIG    1      195.533  89.528 153.432  0.00  0.00    +0.030 A 
ATOM     22  C   LIG    1      195.054  89.274 152.146  0.00  0.00    -0.048 A 
ATOM     23  C   LIG    1      196.025  89.012 151.016  0.00  0.00    +0.044 C 
ATOM     24  C   LIG    1      193.679  89.280 151.903  0.00  0.00    +0.007 A 
ATOM     25  C   LIG    1      192.777  89.531 152.936  0.00  0.00    +0.048 A 
BRANCH  19  27
ATOM     26  C   LIG    1      191.529  89.064 155.913  0.00  0.00    +0.277 C 
ATOM     27  O   LIG    1      192.390  90.038 155.284  0.00  0.00    -0.493 OA
ENDBRANCH  19  27
ENDBRANCH  15  20
ENDBRANCH   1  17
TORSDOF 4
ENDMDL
MODEL 5
REMARK VINA RESULT:      -7.1     60.650     62.605
REMARK  Name = ZINC000006087141
REMARK                            x       y       z     vdW  Elec       q    Type
REMARK                         _______ _______ _______ _____ _____    ______ ____
ROOT
ATOM      1  C   LIG    1      200.574 117.368 143.550  0.00  0.00    +0.222 C 
ENDROOT
BRANCH   1   2
ATOM      2  N   LIG    1      201.813 116.687 144.001  0.00  0.00    -0.290 N 
ATOM      3  C   LIG    1      203.004 116.881 143.326  0.00  0.00    +0.262 A 
ATOM      4  O   LIG    1      202.977 117.598 142.324  0.00  0.00    -0.267 OA
ATOM      5  C   LIG    1      204.195 116.245 143.843  0.00  0.00    +0.068 A 
ATOM      6  C   LIG    1      205.443 116.390 143.218  0.00  0.00    +0.035 A 
ATOM      7  C   LIG    1      206.563 115.760 143.749  0.00  0.00    +0.043 A 
ATOM      8 CL   LIG    1      208.101 115.947 142.979  0.00  0.00    -0.083 Cl
ATOM      9  C   LIG    1      206.455 114.981 144.903  0.00  0.00    +0.042 A 
ATOM     10  C   LIG    1      205.221 114.835 145.527  0.00  0.00    +0.068 A 
ATOM     11 CL   LIG    1      205.124 113.858 146.959  0.00  0.00    -0.081 Cl
ATOM     12  C   LIG    1      204.073 115.471 145.004  0.00  0.00    +0.096 A 
ATOM     13  N   LIG    1      202.815 115.353 145.626  0.00  0.00    -0.235 NA
ATOM     14  C   LIG    1      201.774 115.928 145.158  0.00  0.00    +0.203 A 
ENDBRANCH   1   2
BRANCH   1  17
ATOM     15  N   LIG    1      199.594 115.308 142.621  0.00  0.00    -0.281 N 
ATOM     16  H   LIG    1      200.385 115.401 141.954  0.00  0.00    +0.155 HD
ATOM     17  C   LIG    1      199.475 116.322 143.537  0.00  0.00    +0.237 C 
ATOM     18  O   LIG    1      198.502 116.417 144.257  0.00  0.00    -0.274 OA
BRANCH  15  20
ATOM     19  C   LIG    1      198.954 113.018 142.975  0.00  0.00    +0.141 A 
ATOM     20  C   LIG    1      198.706 114.238 142.332  0.00  0.00    +0.076 A 
ATOM     21  C   LIG    1      197.612 114.365 141.471  0.00  0.00    +0.030 A 
ATOM     22  C   LIG    1      196.781 113.269 141.239  0.00  0.00    -0.048 A 
ATOM     23  C   LIG    1      195.595 113.403 140.309  0.00  0.00    +0.044 C 
ATOM     24  C   LIG    1      197.036 112.055 141.881  0.00  0.00    +0.007 A 
ATOM     25  C   LIG    1      198.119 111.925 142.748  0.00  0.00    +0.048 A 
BRANCH  19  27
ATOM     26  C   LIG    1      199.965 112.844 145.276  0.00  0.00    +0.277 C 
ATOM     27  O   LIG    1      200.046 112.935 143.837  0.00  0.00    -0.493 OA
ENDBRANCH  19  27
ENDBRANCH  15  20
ENDBRANCH   1  17
TORSDOF 4
ENDMDL
MODEL 6
REMARK VINA RESULT:      -6.9     61.590     63.604
REMARK  Name = ZINC000006087141
REMARK                            x       y       z     vdW  Elec       q    Type
REMARK                         _______ _______ _______ _____ _____    ______ ____
ROOT
ATOM      1  C   LIG    1      202.445 117.072 144.094  0.00  0.00    +0.222 C 
ENDROOT
BRANCH   1   2
ATOM      2  N   LIG    1      203.565 116.177 144.477  0.00  0.00    -0.290 N 
ATOM      3  C   LIG    1      203.430 115.302 145.540  0.00  0.00    +0.262 A 
ATOM      4  O   LIG    1      202.370 115.332 146.168  0.00  0.00    -0.267 OA
ATOM      5  C   LIG    1      204.527 114.407 145.832  0.00  0.00    +0.068 A 
ATOM      6  C   LIG    1      204.471 113.488 146.892  0.00  0.00    +0.035 A 
ATOM      7  C   LIG    1      205.550 112.646 147.138  0.00  0.00    +0.043 A 
ATOM      8 CL   LIG    1      205.474 111.511 148.441  0.00  0.00    -0.083 Cl
ATOM      9  C   LIG    1      206.692 112.708 146.337  0.00  0.00    +0.042 A 
ATOM     10  C   LIG    1      206.752 113.616 145.286  0.00  0.00    +0.068 A 
ATOM     11 CL   LIG    1      208.189 113.665 144.312  0.00  0.00    -0.081 Cl
ATOM     12  C   LIG    1      205.664 114.476 145.017  0.00  0.00    +0.096 A 
ATOM     13  N   LIG    1      205.693 115.392 143.948  0.00  0.00    -0.235 NA
ATOM     14  C   LIG    1      204.711 116.171 143.700  0.00  0.00    +0.203 A 
ENDBRANCH   1   2
BRANCH   1  17
ATOM     15  N   LIG    1      200.534 115.568 143.702  0.00  0.00    -0.281 N 
ATOM     16  H   LIG    1      200.515 115.553 144.741  0.00  0.00    +0.155 HD
ATOM     17  C   LIG    1      201.559 116.288 143.144  0.00  0.00    +0.237 C 
ATOM     18  O   LIG    1      201.789 116.247 141.953  0.00  0.00    -0.274 OA
BRANCH  15  20
ATOM     19  C   LIG    1      199.803 113.323 143.247  0.00  0.00    +0.141 A 
ATOM     20  C   LIG    1      199.594 114.700 143.086  0.00  0.00    +0.076 A 
ATOM     21  C   LIG    1      198.489 115.159 142.365  0.00  0.00    +0.030 A 
ATOM     22  C   LIG    1      197.606 114.244 141.790  0.00  0.00    -0.048 A 
ATOM     23  C   LIG    1      196.407 114.737 141.010  0.00  0.00    +0.044 C 
ATOM     24  C   LIG    1      197.822 112.874 141.952  0.00  0.00    +0.007 A 
ATOM     25  C   LIG    1      198.918 112.410 142.679  0.00  0.00    +0.048 A 
BRANCH  19  27
ATOM     26  C   LIG    1      200.857 112.329 145.308  0.00  0.00    +0.277 C 
ATOM     27  O   LIG    1      200.910 112.905 143.985  0.00  0.00    -0.493 OA
ENDBRANCH  19  27
ENDBRANCH  15  20
ENDBRANCH   1  17
TORSDOF 4
ENDMDL
MODEL 7
REMARK VINA RESULT:      -6.9     29.377     33.242
REMARK  Name = ZINC000006087141
REMARK                            x       y       z     vdW  Elec       q    Type
REMARK                         _______ _______ _______ _____ _____    ______ ____
ROOT
ATOM      1  C   LIG    1      153.743 138.696 179.151  0.00  0.00    +0.222 C 
ENDROOT
BRANCH   1   2
ATOM      2  N   LIG    1      154.752 138.394 180.197  0.00  0.00    -0.290 N 
ATOM      3  C   LIG    1      154.787 137.149 180.797  0.00  0.00    +0.262 A 
ATOM      4  O   LIG    1      153.928 136.332 180.459  0.00  0.00    -0.267 OA
ATOM      5  C   LIG    1      155.828 136.886 181.765  0.00  0.00    +0.068 A 
ATOM      6  C   LIG    1      155.935 135.649 182.420  0.00  0.00    +0.035 A 
ATOM      7  C   LIG    1      156.953 135.438 183.343  0.00  0.00    +0.043 A 
ATOM      8 CL   LIG    1      157.085 133.910 184.143  0.00  0.00    -0.083 Cl
ATOM      9  C   LIG    1      157.871 136.452 183.626  0.00  0.00    +0.042 A 
ATOM     10  C   LIG    1      157.770 137.678 182.980  0.00  0.00    +0.068 A 
ATOM     11 CL   LIG    1      158.929 138.915 183.358  0.00  0.00    -0.081 Cl
ATOM     12  C   LIG    1      156.746 137.909 182.035  0.00  0.00    +0.096 A 
ATOM     13  N   LIG    1      156.632 139.136 181.353  0.00  0.00    -0.235 NA
ATOM     14  C   LIG    1      155.708 139.349 180.496  0.00  0.00    +0.203 A 
ENDBRANCH   1   2
BRANCH   1  17
ATOM     15  N   LIG    1      154.499 139.974 177.185  0.00  0.00    -0.281 N 
ATOM     16  H   LIG    1      153.918 140.716 177.621  0.00  0.00    +0.155 HD
ATOM     17  C   LIG    1      154.485 138.763 177.828  0.00  0.00    +0.237 C 
ATOM     18  O   LIG    1      154.984 137.774 177.332  0.00  0.00    -0.274 OA
BRANCH  15  20
ATOM     19  C   LIG    1      156.430 140.549 175.873  0.00  0.00    +0.141 A 
ATOM     20  C   LIG    1      155.047 140.324 175.922  0.00  0.00    +0.076 A 
ATOM     21  C   LIG    1      154.280 140.425 174.759  0.00  0.00    +0.030 A 
ATOM     22  C   LIG    1      154.892 140.771 173.553  0.00  0.00    -0.048 A 
ATOM     23  C   LIG    1      154.065 140.880 172.291  0.00  0.00    +0.044 C 
ATOM     24  C   LIG    1      156.269 140.996 173.511  0.00  0.00    +0.007 A 
ATOM     25  C   LIG    1      157.041 140.886 174.667  0.00  0.00    +0.048 A 
BRANCH  19  27
ATOM     26  C   LIG    1      157.512 141.514 177.933  0.00  0.00    +0.277 C 
ATOM     27  O   LIG    1      157.162 140.424 177.052  0.00  0.00    -0.493 OA
ENDBRANCH  19  27
ENDBRANCH  15  20
ENDBRANCH   1  17
TORSDOF 4
ENDMDL
MODEL 8
REMARK VINA RESULT:      -6.9      3.227      4.512
REMARK  Name = ZINC000006087141
REMARK                            x       y       z     vdW  Elec       q    Type
REMARK                         _______ _______ _______ _____ _____    ______ ____
ROOT
ATOM      1  C   LIG    1      162.597 160.760 158.781  0.00  0.00    +0.222 C 
ENDROOT
BRANCH   1   2
ATOM      2  N   LIG    1      162.944 161.606 157.612  0.00  0.00    -0.290 N 
ATOM      3  C   LIG    1      162.007 161.858 156.627  0.00  0.00    +0.262 A 
ATOM      4  O   LIG    1      160.904 161.320 156.743  0.00  0.00    -0.267 OA
ATOM      5  C   LIG    1      162.376 162.739 155.542  0.00  0.00    +0.068 A 
ATOM      6  C   LIG    1      161.485 163.047 154.502  0.00  0.00    +0.035 A 
ATOM      7  C   LIG    1      161.881 163.900 153.478  0.00  0.00    +0.043 A 
ATOM      8 CL   LIG    1      160.777 164.281 152.202  0.00  0.00    -0.083 Cl
ATOM      9  C   LIG    1      163.163 164.452 153.474  0.00  0.00    +0.042 A 
ATOM     10  C   LIG    1      164.049 164.152 154.502  0.00  0.00    +0.068 A 
ATOM     11 CL   LIG    1      165.636 164.857 154.465  0.00  0.00    -0.081 Cl
ATOM     12  C   LIG    1      163.663 163.291 155.554  0.00  0.00    +0.096 A 
ATOM     13  N   LIG    1      164.536 162.984 156.616  0.00  0.00    -0.235 NA
ATOM     14  C   LIG    1      164.191 162.208 157.571  0.00  0.00    +0.203 A 
ENDBRANCH   1   2
BRANCH   1  17
ATOM     15  N   LIG    1      163.628 158.670 159.578  0.00  0.00    -0.281 N 
ATOM     16  H   LIG    1      163.651 159.190 160.477  0.00  0.00    +0.155 HD
ATOM     17  C   LIG    1      163.150 159.374 158.503  0.00  0.00    +0.237 C 
ATOM     18  O   LIG    1      163.227 158.939 157.372  0.00  0.00    -0.274 OA
BRANCH  15  20
ATOM     19  C   LIG    1      165.632 157.377 159.884  0.00  0.00    +0.141 A 
ATOM     20  C   LIG    1      164.255 157.396 159.621  0.00  0.00    +0.076 A 
ATOM     21  C   LIG    1      163.562 156.197 159.439  0.00  0.00    +0.030 A 
ATOM     22  C   LIG    1      164.247 154.983 159.499  0.00  0.00    -0.048 A 
ATOM     23  C   LIG    1      163.499 153.682 159.304  0.00  0.00    +0.044 C 
ATOM     24  C   LIG    1      165.619 154.971 159.758  0.00  0.00    +0.007 A 
ATOM     25  C   LIG    1      166.315 156.164 159.951  0.00  0.00    +0.048 A 
BRANCH  19  27
ATOM     26  C   LIG    1      166.923 159.012 161.301  0.00  0.00    +0.277 C 
ATOM     27  O   LIG    1      166.285 158.594 160.074  0.00  0.00    -0.493 OA
ENDBRANCH  19  27
ENDBRANCH  15  20
ENDBRANCH   1  17
TORSDOF 4
ENDMDL
MODEL 9
REMARK VINA RESULT:      -6.9      3.978      7.581
REMARK  Name = ZINC000006087141
REMARK                            x       y       z     vdW  Elec       q    Type
REMARK                         _______ _______ _______ _____ _____    ______ ____
ROOT
ATOM      1  C   LIG    1      160.282 160.941 159.931  0.00  0.00    +0.222 C 
ENDROOT
BRANCH   1   2
ATOM      2  N   LIG    1      161.281 161.260 160.982  0.00  0.00    -0.290 N 
ATOM      3  C   LIG    1      161.373 162.541 161.494  0.00  0.00    +0.262 A 
ATOM      4  O   LIG    1      160.630 163.399 161.014  0.00  0.00    -0.267 OA
ATOM      5  C   LIG    1      162.319 162.785 162.560  0.00  0.00    +0.068 A 
ATOM      6  C   LIG    1      162.475 164.055 163.136  0.00  0.00    +0.035 A 
ATOM      7  C   LIG    1      163.396 164.245 164.160  0.00  0.00    +0.043 A 
ATOM      8 CL   LIG    1      163.581 165.811 164.870  0.00  0.00    -0.083 Cl
ATOM      9  C   LIG    1      164.171 163.178 164.620  0.00  0.00    +0.042 A 
ATOM     10  C   LIG    1      164.019 161.917 164.055  0.00  0.00    +0.068 A 
ATOM     11 CL   LIG    1      165.000 160.615 164.652  0.00  0.00    -0.081 Cl
ATOM     12  C   LIG    1      163.085 161.704 163.016  0.00  0.00    +0.096 A 
ATOM     13  N   LIG    1      162.899 160.433 162.438  0.00  0.00    -0.235 NA
ATOM     14  C   LIG    1      162.054 160.235 161.500  0.00  0.00    +0.203 A 
ENDBRANCH   1   2
BRANCH   1  17
ATOM     15  N   LIG    1      161.664 162.065 158.229  0.00  0.00    -0.281 N 
ATOM     16  H   LIG    1      161.500 162.887 158.843  0.00  0.00    +0.155 HD
ATOM     17  C   LIG    1      161.027 160.912 158.609  0.00  0.00    +0.237 C 
ATOM     18  O   LIG    1      161.001 159.934 157.890  0.00  0.00    -0.274 OA
BRANCH  15  20
ATOM     19  C   LIG    1      163.764 162.169 157.063  0.00  0.00    +0.141 A 
ATOM     20  C   LIG    1      162.376 162.358 157.035  0.00  0.00    +0.076 A 
ATOM     21  C   LIG    1      161.752 162.792 155.862  0.00  0.00    +0.030 A 
ATOM     22  C   LIG    1      162.519 163.056 154.726  0.00  0.00    -0.048 A 
ATOM     23  C   LIG    1      161.847 163.524 153.454  0.00  0.00    +0.044 C 
ATOM     24  C   LIG    1      163.902 162.868 154.762  0.00  0.00    +0.007 A 
ATOM     25  C   LIG    1      164.528 162.426 155.926  0.00  0.00    +0.048 A 
BRANCH  19  27
ATOM     26  C   LIG    1      164.872 160.394 158.466  0.00  0.00    +0.277 C 
ATOM     27  O   LIG    1      164.346 161.721 158.248  0.00  0.00    -0.493 OA
ENDBRANCH  19  27
ENDBRANCH  15  20
ENDBRANCH   1  17
TORSDOF 4
ENDMDL
