REMARK VINA RESULT:      -7.0      2.070      2.818
REMARK  Name = 
REMARK                            x       y       z     vdW  Elec       q    Type
REMARK                         _______ _______ _______ _____ _____    ______ ____
ROOT
ATOM      1  C   LIG    1      169.023 150.607 146.530  0.00  0.00    +0.155 A 
ATOM      2  C   LIG    1      169.387 149.349 146.075  0.00  0.00    +0.054 A 
ATOM      3  C   LIG    1      170.338 149.187 145.089  0.00  0.00    +0.089 A 
ATOM      4  C   LIG    1      170.712 147.922 144.624  0.00  0.00    +0.059 A 
ATOM      5  C   LIG    1      170.118 146.800 145.159  0.00  0.00    +0.174 A 
ATOM      6  C   LIG    1      169.172 146.988 146.143  0.00  0.00    +0.173 A 
ATOM      7  N   LIG    1      170.917 150.282 144.567  0.00  0.00    -0.224 NA
ATOM      8  C   LIG    1      170.569 151.504 145.003  0.00  0.00    +0.200 A 
ATOM      9  C   LIG    1      168.800 148.217 146.604  0.00  0.00    +0.044 A 
ATOM     10  N   LIG    1      169.641 151.651 145.965  0.00  0.00    -0.207 NA
ENDROOT
BRANCH   1  11
ATOM     11  N   LIG    1      168.043 150.687 147.540  0.00  0.00    -0.194 NA
BRANCH  11  14
ATOM     12  C   LIG    1      164.821 152.413 148.237  0.00  0.00    +0.044 A 
ATOM     13  C   LIG    1      166.048 151.798 148.381  0.00  0.00    +0.025 A 
ATOM     14  C   LIG    1      166.780 151.313 147.318  0.00  0.00    +0.073 A 
ATOM     15  C   LIG    1      166.284 151.436 146.037  0.00  0.00    +0.017 A 
ATOM     16  C   LIG    1      165.060 152.046 145.865  0.00  0.00    +0.002 A 
ATOM     17  C   LIG    1      164.345 152.524 146.937  0.00  0.00    +0.008 A 
BRANCH  12  19
ATOM     18  C   LIG    1      163.442 153.324 150.321  0.00  0.00    -0.009 C 
ATOM     19  C   LIG    1      164.067 152.915 149.363  0.00  0.00    -0.051 C 
ENDBRANCH  12  19
ENDBRANCH  11  14
ENDBRANCH   1  11
BRANCH   6  20
ATOM     20  O   LIG    1      168.585 145.840 146.670  0.00  0.00    -0.470 OA
BRANCH  20  21
ATOM     21  C   LIG    1      167.274 145.431 146.404  0.00  0.00    +0.237 C 
BRANCH  21  22
ATOM     22  C   LIG    1      166.977 145.469 144.921  0.00  0.00    +0.189 C 
BRANCH  22  23
ATOM     23  O   LIG    1      165.913 144.590 144.638  0.00  0.00    -0.347 OA
ATOM     24  C   LIG    1      165.296 144.139 145.794  0.00  0.00    +0.174 C 
ENDBRANCH  22  23
ENDBRANCH  21  22
ENDBRANCH  20  21
ENDBRANCH   6  20
BRANCH   5  25
ATOM     25  O   LIG    1      170.463 145.506 144.722  0.00  0.00    -0.470 OA
BRANCH  25  26
ATOM     26  C   LIG    1      171.670 144.909 145.158  0.00  0.00    +0.237 C 
BRANCH  26  27
ATOM     27  C   LIG    1      171.290 143.811 146.139  0.00  0.00    +0.189 C 
BRANCH  27  28
ATOM     28  O   LIG    1      171.400 144.224 147.449  0.00  0.00    -0.347 OA
ATOM     29  C   LIG    1      170.878 143.268 148.314  0.00  0.00    +0.174 C 
ENDBRANCH  27  28
ENDBRANCH  26  27
ENDBRANCH  25  26
ENDBRANCH   5  25
TORSDOF 11
