REMARK VINA RESULT:      -8.7      0.000      0.000
REMARK  Name = ZINC000049420917
REMARK                            x       y       z     vdW  Elec       q    Type
REMARK                         _______ _______ _______ _____ _____    ______ ____
ROOT
ATOM      1  N   LIG    1      170.041 148.709 147.243  0.00  0.00    -0.205 N 
ATOM      2  C   LIG    1      169.241 149.128 146.151  0.00  0.00    +0.160 A 
ATOM      3  N   LIG    1      168.582 148.183 145.465  0.00  0.00    -0.238 NA
ATOM      4  C   LIG    1      167.828 148.539 144.427  0.00  0.00    +0.113 A 
ATOM      5  C   LIG    1      167.696 149.870 144.037  0.00  0.00    +0.022 A 
ATOM      6  C   LIG    1      168.367 150.862 144.744  0.00  0.00    +0.034 A 
ATOM      7  C   LIG    1      169.161 150.473 145.815  0.00  0.00    +0.149 A 
ATOM      8  S   LIG    1      170.040 151.562 146.885  0.00  0.00    +0.082 S 
ATOM      9  O   LIG    1      171.404 151.585 146.515  0.00  0.00    -0.150 OA
ATOM     10  O   LIG    1      169.370 152.810 146.931  0.00  0.00    -0.150 OA
ATOM     11  N   LIG    1      169.903 150.823 148.342  0.00  0.00    -0.150 N 
ATOM     12  C   LIG    1      170.403 149.559 148.299  0.00  0.00    +0.334 C 
ATOM     13  O   LIG    1      171.153 149.165 149.187  0.00  0.00    -0.250 OA
ENDROOT
BRANCH   1  18
ATOM     14  C   LIG    1      172.048 143.362 147.310  0.00  0.00    +0.044 C 
ATOM     15  C   LIG    1      171.512 144.778 147.283  0.00  0.00    -0.050 A 
ATOM     16  C   LIG    1      170.345 145.098 147.979  0.00  0.00    +0.005 A 
ATOM     17  C   LIG    1      169.853 146.399 147.969  0.00  0.00    +0.024 A 
ATOM     18  C   LIG    1      170.542 147.380 147.258  0.00  0.00    +0.044 A 
ATOM     19  C   LIG    1      171.712 147.077 146.562  0.00  0.00    +0.024 A 
ATOM     20  C   LIG    1      172.194 145.773 146.580  0.00  0.00    +0.005 A 
ENDBRANCH   1  18
BRANCH  11  21
ATOM     21  C   LIG    1      170.233 151.687 149.473  0.00  0.00    +0.171 C 
BRANCH  21  22
ATOM     22  C   LIG    1      168.912 152.346 149.817  0.00  0.00    -0.028 A 
ATOM     23  C   LIG    1      168.885 153.685 150.224  0.00  0.00    +0.008 A 
ATOM     24  C   LIG    1      167.675 154.298 150.536  0.00  0.00    +0.038 A 
ATOM     25  C   LIG    1      166.505 153.559 150.431  0.00  0.00    +0.123 A 
ATOM     26  F   LIG    1      165.326 154.152 150.734  0.00  0.00    -0.205 F 
ATOM     27  C   LIG    1      166.503 152.232 150.023  0.00  0.00    +0.038 A 
ATOM     28  C   LIG    1      167.717 151.625 149.714  0.00  0.00    +0.008 A 
ENDBRANCH  21  22
ENDBRANCH  11  21
TORSDOF 3
