REMARK VINA RESULT:      -6.4      3.724      4.899
REMARK  Name = ZINC000022625070
REMARK                            x       y       z     vdW  Elec       q    Type
REMARK                         _______ _______ _______ _____ _____    ______ ____
ROOT
ATOM      1  C   LIG    1      202.009 115.449 145.299  0.00  0.00    +0.171 A 
ATOM      2  C   LIG    1      202.561 114.393 146.025  0.00  0.00    +0.032 A 
ATOM      3  C   LIG    1      201.958 113.253 146.826  0.00  0.00    +0.046 C 
ATOM      4  C   LIG    1      202.932 112.044 146.761  0.00  0.00    +0.040 C 
ATOM      5  C   LIG    1      204.378 112.463 147.064  0.00  0.00    -0.036 A 
ATOM      6  C   LIG    1      204.855 113.705 146.610  0.00  0.00    +0.027 A 
ATOM      7  C   LIG    1      206.193 114.056 146.802  0.00  0.00    +0.057 A 
ATOM      8  C   LIG    1      207.042 113.172 147.466  0.00  0.00    +0.121 A 
ATOM      9  C   LIG    1      206.574 111.947 147.933  0.00  0.00    +0.046 A 
ATOM     10  C   LIG    1      205.243 111.593 147.726  0.00  0.00    +0.008 A 
ATOM     11  C   LIG    1      203.888 114.572 145.981  0.00  0.00    +0.171 A 
ATOM     12  O   LIG    1      204.129 115.679 145.267  0.00  0.00    -0.354 OA
ATOM     13  N   LIG    1      202.983 116.211 144.851  0.00  0.00    -0.073 NA
ENDROOT
BRANCH   1  16
ATOM     14  N   LIG    1      200.126 116.985 145.230  0.00  0.00    -0.307 N 
ATOM     15  H   LIG    1      200.813 117.667 145.577  0.00  0.00    +0.149 HD
ATOM     16  C   LIG    1      200.584 115.706 145.065  0.00  0.00    +0.266 C 
ATOM     17  O   LIG    1      199.767 114.847 144.737  0.00  0.00    -0.268 OA
BRANCH  14  18
ATOM     18  C   LIG    1      198.722 117.347 145.253  0.00  0.00    +0.070 C 
ATOM     19  C   LIG    1      198.423 117.988 143.897  0.00  0.00    +0.028 C 
BRANCH  18  20
ATOM     20  C   LIG    1      198.491 118.293 146.445  0.00  0.00    +0.023 C 
BRANCH  20  21
ATOM     21  C   LIG    1      197.089 118.234 147.092  0.00  0.00    +0.017 C 
BRANCH  21  22
ATOM     22  C   LIG    1      196.502 119.663 146.995  0.00  0.00    +0.084 C 
BRANCH  22  23
ATOM     23  N   LIG    1      195.286 119.658 146.140  0.00  0.00    -0.303 NA
BRANCH  23  25
ATOM     24  C   LIG    1      194.729 118.678 144.048  0.00  0.00    +0.020 C 
ATOM     25  C   LIG    1      195.018 118.343 145.513  0.00  0.00    +0.081 C 
ENDBRANCH  23  25
BRANCH  23  26
ATOM     26  C   LIG    1      194.103 120.249 146.796  0.00  0.00    +0.081 C 
ATOM     27  C   LIG    1      193.631 119.193 147.803  0.00  0.00    +0.020 C 
ENDBRANCH  23  26
ENDBRANCH  22  23
ENDBRANCH  21  22
ENDBRANCH  20  21
ENDBRANCH  18  20
ENDBRANCH  14  18
ENDBRANCH   1  16
BRANCH   8  28
ATOM     28  O   LIG    1      208.369 113.463 147.690  0.00  0.00    -0.495 OA
ATOM     29  C   LIG    1      209.336 112.549 148.257  0.00  0.00    +0.277 C 
ENDBRANCH   8  28
TORSDOF 9
