REMARK VINA RESULT:      -6.2      2.173      3.618
REMARK  Name = ZINC000022625070
REMARK                            x       y       z     vdW  Elec       q    Type
REMARK                         _______ _______ _______ _____ _____    ______ ____
ROOT
ATOM      1  C   LIG    1      200.940 112.947 144.852  0.00  0.00    +0.171 A 
ATOM      2  C   LIG    1      202.284 113.321 144.886  0.00  0.00    +0.032 A 
ATOM      3  C   LIG    1      203.198 114.011 143.888  0.00  0.00    +0.046 C 
ATOM      4  C   LIG    1      204.271 114.807 144.681  0.00  0.00    +0.040 C 
ATOM      5  C   LIG    1      204.910 113.953 145.786  0.00  0.00    -0.036 A 
ATOM      6  C   LIG    1      204.122 113.035 146.502  0.00  0.00    +0.027 A 
ATOM      7  C   LIG    1      204.672 112.320 147.568  0.00  0.00    +0.057 A 
ATOM      8  C   LIG    1      206.013 112.511 147.899  0.00  0.00    +0.121 A 
ATOM      9  C   LIG    1      206.804 113.406 147.184  0.00  0.00    +0.046 A 
ATOM     10  C   LIG    1      206.249 114.129 146.132  0.00  0.00    +0.008 A 
ATOM     11  C   LIG    1      202.761 112.870 146.053  0.00  0.00    +0.171 A 
ATOM     12  O   LIG    1      201.760 112.253 146.693  0.00  0.00    -0.354 OA
ATOM     13  N   LIG    1      200.651 112.302 145.961  0.00  0.00    -0.073 NA
ENDROOT
BRANCH   1  16
ATOM     14  N   LIG    1      199.881 114.477 143.287  0.00  0.00    -0.307 N 
ATOM     15  H   LIG    1      200.444 115.186 143.772  0.00  0.00    +0.149 HD
ATOM     16  C   LIG    1      199.982 113.200 143.769  0.00  0.00    +0.266 C 
ATOM     17  O   LIG    1      199.255 112.343 143.270  0.00  0.00    -0.268 OA
BRANCH  14  18
ATOM     18  C   LIG    1      198.836 114.922 142.386  0.00  0.00    +0.070 C 
ATOM     19  C   LIG    1      199.445 114.907 140.983  0.00  0.00    +0.028 C 
BRANCH  18  20
ATOM     20  C   LIG    1      198.375 116.318 142.841  0.00  0.00    +0.023 C 
BRANCH  20  21
ATOM     21  C   LIG    1      198.529 116.621 144.348  0.00  0.00    +0.017 C 
BRANCH  21  22
ATOM     22  C   LIG    1      199.603 117.730 144.465  0.00  0.00    +0.084 C 
BRANCH  22  23
ATOM     23  N   LIG    1      200.932 117.125 144.743  0.00  0.00    -0.303 NA
BRANCH  23  25
ATOM     24  C   LIG    1      201.378 118.712 143.031  0.00  0.00    +0.020 C 
ATOM     25  C   LIG    1      201.961 117.488 143.742  0.00  0.00    +0.081 C 
ENDBRANCH  23  25
BRANCH  23  26
ATOM     26  C   LIG    1      201.380 117.304 146.137  0.00  0.00    +0.081 C 
ATOM     27  C   LIG    1      200.913 116.044 146.876  0.00  0.00    +0.020 C 
ENDBRANCH  23  26
ENDBRANCH  22  23
ENDBRANCH  21  22
ENDBRANCH  20  21
ENDBRANCH  18  20
ENDBRANCH  14  18
ENDBRANCH   1  16
BRANCH   8  28
ATOM     28  O   LIG    1      206.613 111.832 148.935  0.00  0.00    -0.495 OA
ATOM     29  C   LIG    1      207.983 112.011 149.362  0.00  0.00    +0.277 C 
ENDBRANCH   8  28
TORSDOF 9
