REMARK VINA RESULT:      -9.2     31.468     36.596
REMARK  Name = 
REMARK                            x       y       z     vdW  Elec       q    Type
REMARK                         _______ _______ _______ _____ _____    ______ ____
ROOT
ATOM      1  C   LIG    1      198.799 113.920 142.783  0.00  0.00    +0.243 C 
ATOM      2  C   LIG    1      199.921 113.825 143.920  0.00  0.00    +0.196 C 
ATOM      3  O   LIG    1      199.137 113.580 144.755  0.00  0.00    -0.292 OA
ATOM      4  C   LIG    1      201.239 113.894 144.307  0.00  0.00    +0.090 C 
ATOM      5  C   LIG    1      202.385 114.291 143.368  0.00  0.00    +0.093 C 
ATOM      6  C   LIG    1      203.641 113.876 144.255  0.00  0.00    +0.191 C 
ATOM      7  C   LIG    1      203.916 115.274 144.949  0.00  0.00    +0.157 C 
ATOM      8  C   LIG    1      202.594 115.145 145.974  0.00  0.00    +0.067 C 
ATOM      9  O   LIG    1      204.762 114.548 145.939  0.00  0.00    -0.349 OA
ATOM     10  C   LIG    1      203.698 113.648 145.674  0.00  0.00    +0.185 C 
ATOM     11  C   LIG    1      202.691 115.746 142.971  0.00  0.00    +0.201 C 
ATOM     12  C   LIG    1      201.506 116.413 142.159  0.00  0.00    +0.170 C 
ATOM     13  C   LIG    1      200.871 115.302 141.368  0.00  0.00    +0.048 C 
ATOM     14  C   LIG    1      200.331 115.838 139.980  0.00  0.00    +0.007 C 
ATOM     15  C   LIG    1      201.695 114.164 140.963  0.00  0.00    +0.007 C 
ATOM     16  O   LIG    1      201.999 117.087 141.050  0.00  0.00    -0.222 OA
ATOM     17  C   LIG    1      200.633 117.358 142.843  0.00  0.00    +0.082 C 
ATOM     18  C   LIG    1      199.543 117.333 141.577  0.00  0.00    +0.189 C 
ATOM     19  C   LIG    1      198.789 116.045 142.240  0.00  0.00    -0.009 C 
ATOM     20  C   LIG    1      197.544 116.071 142.890  0.00  0.00    +0.029 C 
ATOM     21  C   LIG    1      201.372 112.894 145.316  0.00  0.00    +0.010 C 
ATOM     22  C   LIG    1      201.367 115.386 144.972  0.00  0.00    +0.161 C 
ATOM     23  O   LIG    1      200.350 115.227 146.068  0.00  0.00    -0.223 OA
ATOM     24  C   LIG    1      199.640 115.076 142.039  0.00  0.00    -0.000 C 
ENDROOT
BRANCH   1  25
ATOM     25  O   LIG    1      199.345 112.791 141.907  0.00  0.00    -0.440 OA
BRANCH  25  27
ATOM     26  C   LIG    1      197.012 111.899 141.962  0.00  0.00    +0.121 C 
ATOM     27  C   LIG    1      198.463 111.724 141.896  0.00  0.00    +0.318 C 
ATOM     28  O   LIG    1      198.835 110.525 141.828  0.00  0.00    -0.250 OA
ENDBRANCH  25  27
ENDBRANCH   1  25
BRANCH   6  29
ATOM     29  O   LIG    1      204.465 113.039 143.738  0.00  0.00    -0.451 OA
BRANCH  29  30
ATOM     30  C   LIG    1      205.681 112.566 143.976  0.00  0.00    +0.317 C 
ATOM     31  O   LIG    1      206.693 113.290 143.872  0.00  0.00    -0.250 OA
ATOM     32  C   LIG    1      206.041 111.163 144.388  0.00  0.00    +0.121 C 
ENDBRANCH  29  30
ENDBRANCH   6  29
BRANCH  11  33
ATOM     33  O   LIG    1      203.715 115.679 142.048  0.00  0.00    -0.446 OA
BRANCH  33  34
ATOM     34  C   LIG    1      204.619 115.618 141.232  0.00  0.00    +0.341 C 
ATOM     35  O   LIG    1      205.158 116.742 141.399  0.00  0.00    -0.245 OA
BRANCH  34  36
ATOM     36  C   LIG    1      205.297 114.846 140.213  0.00  0.00    +0.076 A 
ATOM     37  C   LIG    1      206.486 114.146 140.530  0.00  0.00    +0.006 A 
ATOM     38  C   LIG    1      207.148 113.403 139.592  0.00  0.00    +0.000 A 
ATOM     39  C   LIG    1      206.698 113.293 138.299  0.00  0.00    +0.000 A 
ATOM     40  C   LIG    1      205.526 113.969 137.941  0.00  0.00    +0.000 A 
ATOM     41  C   LIG    1      204.908 114.699 138.931  0.00  0.00    +0.006 A 
ENDBRANCH  34  36
ENDBRANCH  33  34
ENDBRANCH  11  33
BRANCH  18  42
ATOM     42  O   LIG    1      198.556 118.374 142.071  0.00  0.00    -0.446 OA
BRANCH  42  43
ATOM     43  C   LIG    1      197.926 118.905 141.043  0.00  0.00    +0.350 C 
ATOM     44  O   LIG    1      198.176 118.566 139.866  0.00  0.00    -0.247 OA
BRANCH  43  45
ATOM     45  C   LIG    1      196.776 120.033 141.149  0.00  0.00    +0.273 C 
ATOM     46  O   LIG    1      197.028 120.417 142.569  0.00  0.00    -0.209 OA
BRANCH  45  47
ATOM     47  C   LIG    1      195.602 118.841 141.543  0.00  0.00    +0.159 C 
BRANCH  47  48
ATOM     48  C   LIG    1      194.372 119.451 140.810  0.00  0.00    +0.000 A 
ATOM     49  C   LIG    1      193.546 118.495 140.284  0.00  0.00    -0.003 A 
ATOM     50  C   LIG    1      192.399 118.825 139.592  0.00  0.00    -0.000 A 
ATOM     51  C   LIG    1      192.115 120.158 139.453  0.00  0.00    -0.000 A 
ATOM     52  C   LIG    1      192.930 121.122 139.973  0.00  0.00    -0.000 A 
ATOM     53  C   LIG    1      194.067 120.718 140.656  0.00  0.00    -0.003 A 
ENDBRANCH  47  48
BRANCH  47  54
ATOM     54  N   LIG    1      195.390 119.397 142.961  0.00  0.00    -0.196 NA
ATOM     55  C   LIG    1      194.907 118.701 144.002  0.00  0.00    +0.265 C 
ATOM     56  O   LIG    1      194.589 117.501 143.859  0.00  0.00    -0.268 OA
BRANCH  55  57
ATOM     57  C   LIG    1      194.749 119.333 145.304  0.00  0.00    +0.055 A 
ATOM     58  C   LIG    1      193.504 119.557 145.854  0.00  0.00    +0.005 A 
ATOM     59  C   LIG    1      193.428 120.157 147.084  0.00  0.00    +0.000 A 
ATOM     60  C   LIG    1      194.545 120.548 147.797  0.00  0.00    +0.000 A 
ATOM     61  C   LIG    1      195.786 120.316 147.233  0.00  0.00    +0.000 A 
ATOM     62  C   LIG    1      195.856 119.715 146.003  0.00  0.00    +0.005 A 
ENDBRANCH  55  57
ENDBRANCH  47  54
ENDBRANCH  45  47
ENDBRANCH  43  45
ENDBRANCH  42  43
ENDBRANCH  18  42
TORSDOF 14
