REMARK VINA RESULT:      -6.9     29.377     33.242
REMARK  Name = ZINC000006087141
REMARK                            x       y       z     vdW  Elec       q    Type
REMARK                         _______ _______ _______ _____ _____    ______ ____
ROOT
ATOM      1  C   LIG    1      153.743 138.696 179.151  0.00  0.00    +0.222 C 
ENDROOT
BRANCH   1   2
ATOM      2  N   LIG    1      154.752 138.394 180.197  0.00  0.00    -0.290 N 
ATOM      3  C   LIG    1      154.787 137.149 180.797  0.00  0.00    +0.262 A 
ATOM      4  O   LIG    1      153.928 136.332 180.459  0.00  0.00    -0.267 OA
ATOM      5  C   LIG    1      155.828 136.886 181.765  0.00  0.00    +0.068 A 
ATOM      6  C   LIG    1      155.935 135.649 182.420  0.00  0.00    +0.035 A 
ATOM      7  C   LIG    1      156.953 135.438 183.343  0.00  0.00    +0.043 A 
ATOM      8 CL   LIG    1      157.085 133.910 184.143  0.00  0.00    -0.083 Cl
ATOM      9  C   LIG    1      157.871 136.452 183.626  0.00  0.00    +0.042 A 
ATOM     10  C   LIG    1      157.770 137.678 182.980  0.00  0.00    +0.068 A 
ATOM     11 CL   LIG    1      158.929 138.915 183.358  0.00  0.00    -0.081 Cl
ATOM     12  C   LIG    1      156.746 137.909 182.035  0.00  0.00    +0.096 A 
ATOM     13  N   LIG    1      156.632 139.136 181.353  0.00  0.00    -0.235 NA
ATOM     14  C   LIG    1      155.708 139.349 180.496  0.00  0.00    +0.203 A 
ENDBRANCH   1   2
BRANCH   1  17
ATOM     15  N   LIG    1      154.499 139.974 177.185  0.00  0.00    -0.281 N 
ATOM     16  H   LIG    1      153.918 140.716 177.621  0.00  0.00    +0.155 HD
ATOM     17  C   LIG    1      154.485 138.763 177.828  0.00  0.00    +0.237 C 
ATOM     18  O   LIG    1      154.984 137.774 177.332  0.00  0.00    -0.274 OA
BRANCH  15  20
ATOM     19  C   LIG    1      156.430 140.549 175.873  0.00  0.00    +0.141 A 
ATOM     20  C   LIG    1      155.047 140.324 175.922  0.00  0.00    +0.076 A 
ATOM     21  C   LIG    1      154.280 140.425 174.759  0.00  0.00    +0.030 A 
ATOM     22  C   LIG    1      154.892 140.771 173.553  0.00  0.00    -0.048 A 
ATOM     23  C   LIG    1      154.065 140.880 172.291  0.00  0.00    +0.044 C 
ATOM     24  C   LIG    1      156.269 140.996 173.511  0.00  0.00    +0.007 A 
ATOM     25  C   LIG    1      157.041 140.886 174.667  0.00  0.00    +0.048 A 
BRANCH  19  27
ATOM     26  C   LIG    1      157.512 141.514 177.933  0.00  0.00    +0.277 C 
ATOM     27  O   LIG    1      157.162 140.424 177.052  0.00  0.00    -0.493 OA
ENDBRANCH  19  27
ENDBRANCH  15  20
ENDBRANCH   1  17
TORSDOF 4
