REMARK VINA RESULT:      -7.0     17.136     19.279
REMARK  Name = ZINC000000622956
REMARK                            x       y       z     vdW  Elec       q    Type
REMARK                         _______ _______ _______ _____ _____    ______ ____
ROOT
ATOM      1  C   LIG    1      163.129 157.877 159.876  0.00  0.00    +0.271 C 
ATOM      2  N   LIG    1      164.028 158.984 160.093  0.00  0.00    -0.157 N 
ATOM      3  C   LIG    1      164.676 158.884 161.232  0.00  0.00    +0.250 C 
ATOM      4  C   LIG    1      165.722 159.869 161.735  0.00  0.00    +0.124 C 
ATOM      5  C   LIG    1      167.098 159.169 161.657  0.00  0.00    +0.012 C 
ATOM      6  C   LIG    1      167.264 158.211 162.851  0.00  0.00    +0.004 C 
ATOM      7  C   LIG    1      166.354 156.965 162.853  0.00  0.00    +0.045 C 
ATOM      8  C   LIG    1      164.898 157.370 163.155  0.00  0.00    +0.236 C 
ATOM      9  N   LIG    1      164.318 157.804 161.877  0.00  0.00    -0.258 N 
ATOM     10  C   LIG    1      163.332 156.994 161.132  0.00  0.00    +0.323 C 
ENDROOT
BRANCH   1  11
ATOM     11  C   LIG    1      161.674 158.345 159.755  0.00  0.00    +0.034 A 
ATOM     12  C   LIG    1      161.053 159.075 160.784  0.00  0.00    +0.060 A 
ATOM     13  C   LIG    1      159.738 159.480 160.613  0.00  0.00    +0.167 A 
ATOM     14  O   LIG    1      158.985 160.181 161.486  0.00  0.00    -0.453 OA
ATOM     15  C   LIG    1      157.666 160.372 160.831  0.00  0.00    +0.466 C 
ATOM     16  O   LIG    1      157.784 159.685 159.521  0.00  0.00    -0.453 OA
ATOM     17  C   LIG    1      159.039 159.193 159.469  0.00  0.00    +0.166 A 
ATOM     18  C   LIG    1      159.621 158.483 158.432  0.00  0.00    +0.050 A 
ATOM     19  C   LIG    1      160.944 158.063 158.579  0.00  0.00    +0.014 A 
ENDBRANCH   1  11
BRANCH   2  20
ATOM     20  C   LIG    1      164.246 160.007 159.138  0.00  0.00    +0.124 A 
ATOM     21  C   LIG    1      163.548 161.205 159.275  0.00  0.00    +0.050 A 
ATOM     22  C   LIG    1      163.750 162.217 158.341  0.00  0.00    +0.024 A 
ATOM     23  C   LIG    1      164.644 162.021 157.283  0.00  0.00    +0.041 A 
ATOM     24 CL   LIG    1      164.893 163.280 156.124  0.00  0.00    -0.084 Cl
ATOM     25  C   LIG    1      165.336 160.812 157.156  0.00  0.00    +0.024 A 
ATOM     26  C   LIG    1      165.137 159.796 158.087  0.00  0.00    +0.050 A 
ENDBRANCH   2  20
BRANCH   1  27
ATOM     27  O   LIG    1      163.582 157.209 158.706  0.00  0.00    -0.347 OA
ATOM     28  H   LIG    1      164.444 156.813 158.905  0.00  0.00    +0.215 HD
ENDBRANCH   1  27
TORSDOF 3
