REMARK VINA RESULT:      -5.8      6.815      8.281
REMARK  Name = 
REMARK                            x       y       z     vdW  Elec       q    Type
REMARK                         _______ _______ _______ _____ _____    ______ ____
ROOT
ATOM      1  C   LIG    1      168.128 143.677 150.516  0.00  0.00    -0.010 A 
ATOM      2  C   LIG    1      166.772 143.954 150.662  0.00  0.00    -0.007 A 
ATOM      3  C   LIG    1      165.997 144.319 149.599  0.00  0.00    -0.010 A 
ATOM      4  C   LIG    1      166.578 144.408 148.383  0.00  0.00    -0.006 A 
ATOM      5  C   LIG    1      167.947 144.141 148.145  0.00  0.00    +0.002 A 
ATOM      6  C   LIG    1      168.664 143.780 149.253  0.00  0.00    -0.006 A 
ENDROOT
BRANCH   1   8
ATOM      7  C   LIG    1      168.965 144.365 152.770  0.00  0.00    +0.020 C 
ATOM      8  C   LIG    1      168.888 143.280 151.720  0.00  0.00    +0.098 C 
ATOM      9  C   LIG    1      170.275 142.737 151.383  0.00  0.00    +0.020 C 
BRANCH   8  10
ATOM     10  C   LIG    1      168.212 142.116 152.363  0.00  0.00    +0.075 C 
ATOM     11  N   LIG    1      167.663 141.206 152.871  0.00  0.00    -0.196 NA
ENDBRANCH   8  10
ENDBRANCH   1   8
BRANCH   3  12
ATOM     12  C   LIG    1      164.538 144.646 149.748  0.00  0.00    +0.098 C 
ATOM     13  C   LIG    1      164.296 146.076 149.421  0.00  0.00    +0.020 C 
ATOM     14  C   LIG    1      164.138 144.249 151.159  0.00  0.00    +0.020 C 
BRANCH  12  15
ATOM     15  C   LIG    1      163.771 143.833 148.808  0.00  0.00    +0.075 C 
ATOM     16  N   LIG    1      163.149 143.176 148.050  0.00  0.00    -0.196 NA
ENDBRANCH  12  15
ENDBRANCH   3  12
BRANCH   5  17
ATOM     17  C   LIG    1      168.342 144.278 146.772  0.00  0.00    +0.156 C 
BRANCH  17  18
ATOM     18  N   LIG    1      167.887 143.364 145.797  0.00  0.00    -0.226 N 
ATOM     19  N   LIG    1      168.380 142.154 145.577  0.00  0.00    -0.145 NA
ATOM     20  C   LIG    1      167.737 141.587 144.547  0.00  0.00    +0.221 A 
ATOM     21  N   LIG    1      166.804 142.461 144.095  0.00  0.00    -0.201 NA
ATOM     22  C   LIG    1      166.909 143.551 144.877  0.00  0.00    +0.198 A 
ENDBRANCH  17  18
ENDBRANCH   5  17
TORSDOF 6
