REMARK  Name = 
REMARK                            x       y       z     vdW  Elec       q    Type
REMARK                         _______ _______ _______ _____ _____    ______ ____
ROOT
ATOM      1  C   LIG    1       -0.749   1.187   0.005  0.00  0.00    -0.010 A 
ATOM      2  C   LIG    1       -1.728   0.204  -0.099  0.00  0.00    -0.007 A 
ATOM      3  C   LIG    1       -1.408  -1.121  -0.170  0.00  0.00    -0.010 A 
ATOM      4  C   LIG    1       -0.103  -1.467  -0.136  0.00  0.00    -0.006 A 
ATOM      5  C   LIG    1        0.955  -0.534  -0.028  0.00  0.00    +0.002 A 
ATOM      6  C   LIG    1        0.563   0.775   0.039  0.00  0.00    -0.006 A 
ENDROOT
BRANCH   1   8
ATOM      7  C   LIG    1       -0.487   3.504  -0.902  0.00  0.00    +0.020 C 
ATOM      8  C   LIG    1       -1.187   2.597   0.085  0.00  0.00    +0.098 C 
ATOM      9  C   LIG    1       -1.105   3.155   1.504  0.00  0.00    +0.020 C 
BRANCH   8  10
ATOM     10  C   LIG    1       -2.644   2.674  -0.229  0.00  0.00    +0.075 C 
ATOM     11  N   LIG    1       -3.791   2.724  -0.491  0.00  0.00    -0.196 NA
ENDBRANCH   8  10
ENDBRANCH   1   8
BRANCH   3  12
ATOM     12  C   LIG    1       -2.454  -2.190  -0.309  0.00  0.00    +0.098 C 
ATOM     13  C   LIG    1       -2.602  -2.583  -1.736  0.00  0.00    +0.020 C 
ATOM     14  C   LIG    1       -3.725  -1.651   0.327  0.00  0.00    +0.020 C 
BRANCH  12  15
ATOM     15  C   LIG    1       -2.031  -3.369   0.441  0.00  0.00    +0.075 C 
ATOM     16  N   LIG    1       -1.691  -4.323   1.047  0.00  0.00    -0.196 NA
ENDBRANCH  12  15
ENDBRANCH   3  12
BRANCH   5  17
ATOM     17  C   LIG    1        2.261  -1.129   0.011  0.00  0.00    +0.156 C 
BRANCH  17  18
ATOM     18  N   LIG    1        3.418  -0.322   0.080  0.00  0.00    -0.226 N 
ATOM     19  N   LIG    1        4.124   0.112  -0.953  0.00  0.00    -0.145 NA
ATOM     20  C   LIG    1        5.180   0.810  -0.514  0.00  0.00    +0.221 A 
ATOM     21  N   LIG    1        5.148   0.823   0.841  0.00  0.00    -0.201 NA
ATOM     22  C   LIG    1        4.055   0.121   1.191  0.00  0.00    +0.198 A 
ENDBRANCH  17  18
ENDBRANCH   5  17
TORSDOF 6
