REMARK  Name = 
REMARK                            x       y       z     vdW  Elec       q    Type
REMARK                         _______ _______ _______ _____ _____    ______ ____
ROOT
ATOM      1  C   LIG    1        1.215  -0.245   0.041  0.00  0.00    +0.155 A 
ATOM      2  C   LIG    1       -0.167  -0.332  -0.010  0.00  0.00    +0.054 A 
ATOM      3  C   LIG    1       -0.842  -1.404   0.536  0.00  0.00    +0.089 A 
ATOM      4  C   LIG    1       -2.237  -1.501   0.490  0.00  0.00    +0.059 A 
ATOM      5  C   LIG    1       -2.966  -0.502  -0.118  0.00  0.00    +0.174 A 
ATOM      6  C   LIG    1       -2.269   0.558  -0.656  0.00  0.00    +0.173 A 
ATOM      7  N   LIG    1       -0.130  -2.378   1.129  0.00  0.00    -0.224 NA
ATOM      8  C   LIG    1        1.210  -2.300   1.182  0.00  0.00    +0.200 A 
ATOM      9  C   LIG    1       -0.909   0.662  -0.616  0.00  0.00    +0.044 A 
ATOM     10  N   LIG    1        1.858  -1.250   0.646  0.00  0.00    -0.207 NA
ENDROOT
BRANCH   1  11
ATOM     11  N   LIG    1        1.829   0.883  -0.541  0.00  0.00    -0.194 NA
BRANCH  11  14
ATOM     12  C   LIG    1        5.436   0.219   0.087  0.00  0.00    +0.044 A 
ATOM     13  C   LIG    1        4.061   0.112   0.048  0.00  0.00    +0.025 A 
ATOM     14  C   LIG    1        3.246   1.058  -0.536  0.00  0.00    +0.073 A 
ATOM     15  C   LIG    1        3.807   2.176  -1.117  0.00  0.00    +0.017 A 
ATOM     16  C   LIG    1        5.179   2.308  -1.091  0.00  0.00    +0.002 A 
ATOM     17  C   LIG    1        5.975   1.354  -0.504  0.00  0.00    +0.008 A 
BRANCH  12  19
ATOM     18  C   LIG    1        6.966  -1.637   1.223  0.00  0.00    -0.009 C 
ATOM     19  C   LIG    1        6.275  -0.783   0.705  0.00  0.00    -0.051 C 
ENDBRANCH  12  19
ENDBRANCH  11  14
ENDBRANCH   1  11
BRANCH   6  20
ATOM     20  O   LIG    1       -3.026   1.556  -1.265  0.00  0.00    -0.470 OA
BRANCH  20  21
ATOM     21  C   LIG    1       -2.488   2.701  -1.861  0.00  0.00    +0.237 C 
BRANCH  21  22
ATOM     22  C   LIG    1       -1.705   3.524  -0.861  0.00  0.00    +0.189 C 
BRANCH  22  23
ATOM     23  O   LIG    1       -2.561   3.919   0.186  0.00  0.00    -0.347 OA
ATOM     24  C   LIG    1       -3.620   4.684  -0.275  0.00  0.00    +0.174 C 
ENDBRANCH  22  23
ENDBRANCH  21  22
ENDBRANCH  20  21
ENDBRANCH   6  20
BRANCH   5  25
ATOM     25  O   LIG    1       -4.372  -0.557  -0.188  0.00  0.00    -0.470 OA
BRANCH  25  26
ATOM     26  C   LIG    1       -5.067  -1.655   0.371  0.00  0.00    +0.237 C 
BRANCH  26  27
ATOM     27  C   LIG    1       -4.573  -2.902  -0.345  0.00  0.00    +0.189 C 
BRANCH  27  28
ATOM     28  O   LIG    1       -5.186  -4.046   0.120  0.00  0.00    -0.347 OA
ATOM     29  C   LIG    1       -4.940  -4.221   1.478  0.00  0.00    +0.174 C 
ENDBRANCH  27  28
ENDBRANCH  26  27
ENDBRANCH  25  26
ENDBRANCH   5  25
TORSDOF 11
