REMARK  Name = 
REMARK                            x       y       z     vdW  Elec       q    Type
REMARK                         _______ _______ _______ _____ _____    ______ ____
ROOT
ATOM      1  C   LIG    1       -4.100  -3.284  -2.710  0.00  0.00    +0.032 C 
ATOM      2  C   LIG    1       -2.759  -2.879  -2.188  0.00  0.00    -0.006 A 
ATOM      3  C   LIG    1       -2.632  -1.805  -1.297  0.00  0.00    +0.071 A 
ATOM      4  C   LIG    1       -1.398  -1.418  -0.805  0.00  0.00    +0.033 A 
ATOM      5  C   LIG    1       -0.280  -2.105  -1.203  0.00  0.00    +0.075 A 
ATOM      6  C   LIG    1       -0.396  -3.179  -2.093  0.00  0.00    +0.016 A 
ATOM      7  C   LIG    1       -1.633  -3.551  -2.573  0.00  0.00    -0.002 A 
ENDROOT
BRANCH   5   8
ATOM      8  N   LIG    1        0.995  -1.746  -0.729  0.00  0.00    -0.175 NA
ATOM      9  C   LIG    1        1.269  -0.694   0.166  0.00  0.00    +0.269 C 
ATOM     10  O   LIG    1        0.335   0.004   0.599  0.00  0.00    -0.268 OA
BRANCH   9  11
ATOM     11  C   LIG    1        2.654  -0.430   0.579  0.00  0.00    +0.055 A 
ATOM     12  C   LIG    1        2.960   0.592   1.450  0.00  0.00    +0.004 A 
ATOM     13  C   LIG    1        4.277   0.846   1.846  0.00  0.00    -0.003 A 
ATOM     14  C   LIG    1        5.310   0.077   1.371  0.00  0.00    -0.006 A 
ATOM     15  C   LIG    1        5.013  -0.944   0.501  0.00  0.00    -0.003 A 
ATOM     16  C   LIG    1        3.695  -1.199   0.105  0.00  0.00    +0.004 A 
BRANCH  14  17
ATOM     17  C   LIG    1        6.697   0.348   1.790  0.00  0.00    +0.099 C 
BRANCH  17  18
ATOM     18  N   LIG    1        7.671  -0.513   1.201  0.00  0.00    -0.267 NA
ATOM     19  C   LIG    1        7.605  -0.569  -0.246  0.00  0.00    +0.090 C 
ATOM     20  C   LIG    1        7.920   0.779  -0.861  0.00  0.00    +0.090 C 
ATOM     21  N   LIG    1        8.943   1.471  -0.083  0.00  0.00    -0.269 NA
ATOM     22  C   LIG    1        9.797   2.257  -0.921  0.00  0.00    +0.090 C 
ATOM     23  C   LIG    1        9.782   0.499   0.624  0.00  0.00    +0.090 C 
ATOM     24  C   LIG    1        8.966  -0.142   1.700  0.00  0.00    +0.090 C 
ENDBRANCH  17  18
ENDBRANCH  14  17
ENDBRANCH   9  11
ENDBRANCH   5   8
BRANCH   3  25
ATOM     25  N   LIG    1       -3.814  -1.162  -0.944  0.00  0.00    -0.178 NA
BRANCH  25  26
ATOM     26  C   LIG    1       -4.033  -0.077  -0.093  0.00  0.00    +0.241 A 
ATOM     27  N   LIG    1       -5.317   0.341   0.063  0.00  0.00    -0.212 NA
ATOM     28  C   LIG    1       -5.703   1.352   0.830  0.00  0.00    +0.087 A 
ATOM     29  C   LIG    1       -4.717   2.049   1.537  0.00  0.00    +0.040 A 
ATOM     30  C   LIG    1       -3.413   1.631   1.383  0.00  0.00    +0.103 A 
ATOM     31  N   LIG    1       -3.114   0.594   0.583  0.00  0.00    -0.211 NA
BRANCH  28  32
ATOM     32  C   LIG    1       -7.093   1.769   0.970  0.00  0.00    +0.037 A 
ATOM     33  C   LIG    1       -8.080   1.098   0.284  0.00  0.00    +0.100 A 
ATOM     34  N   LIG    1       -9.388   1.477   0.406  0.00  0.00    -0.242 NA
ATOM     35  C   LIG    1       -9.749   2.491   1.179  0.00  0.00    +0.099 A 
ATOM     36  C   LIG    1       -8.805   3.203   1.893  0.00  0.00    +0.021 A 
ATOM     37  C   LIG    1       -7.467   2.821   1.773  0.00  0.00    +0.005 A 
ENDBRANCH  28  32
ENDBRANCH  25  26
ENDBRANCH   3  25
TORSDOF 7
