REMARK  Name = 
REMARK                            x       y       z     vdW  Elec       q    Type
REMARK                         _______ _______ _______ _____ _____    ______ ____
ROOT
ATOM      1  C   LIG    1        3.259  -0.768  -2.196  0.00  0.00    +0.035 A 
ATOM      2  C   LIG    1        1.938  -0.593  -1.854  0.00  0.00    +0.007 A 
ATOM      3  C   LIG    1        0.961  -0.539  -2.844  0.00  0.00    +0.051 A 
ATOM      4  C   LIG    1        1.261  -0.656  -4.184  0.00  0.00    +0.086 A 
ATOM      5  N   LIG    1        0.320  -0.605  -5.156  0.00  0.00    -0.224 NA
ATOM      6  C   LIG    1       -0.952  -0.434  -4.776  0.00  0.00    +0.200 A 
ATOM      7  N   LIG    1       -1.275  -0.317  -3.469  0.00  0.00    -0.207 NA
ATOM      8  C   LIG    1        2.602  -0.832  -4.501  0.00  0.00    +0.019 A 
ATOM      9  C   LIG    1       -0.377  -0.362  -2.493  0.00  0.00    +0.155 A 
ATOM     10  C   LIG    1        3.577  -0.886  -3.531  0.00  0.00    +0.005 A 
ENDROOT
BRANCH   1  13
ATOM     11  C   LIG    1        5.263  -0.820   0.781  0.00  0.00    +0.140 A 
ATOM     12  O   LIG    1        4.139  -0.730   0.128  0.00  0.00    -0.456 OA
ATOM     13  C   LIG    1        4.270  -0.822  -1.148  0.00  0.00    +0.145 A 
ATOM     14  C   LIG    1        5.628  -0.994  -1.402  0.00  0.00    +0.040 A 
ATOM     15  C   LIG    1        6.251  -0.992  -0.179  0.00  0.00    +0.038 A 
BRANCH  11  16
ATOM     16  C   LIG    1        5.495  -0.757   2.263  0.00  0.00    +0.153 C 
BRANCH  16  17
ATOM     17  N   LIG    1        6.924  -0.852   2.538  0.00  0.00    -0.208 NA
BRANCH  17  18
ATOM     18  C   LIG    1        7.109  -0.787   3.971  0.00  0.00    +0.114 C 
BRANCH  18  19
ATOM     19  C   LIG    1        8.556  -0.871   4.368  0.00  0.00    +0.170 C 
BRANCH  19  21
ATOM     20  C   LIG    1        9.421   0.388   1.918  0.00  0.00    +0.176 C 
ATOM     21  S   LIG    1        9.514   0.453   3.673  0.00  0.00    -0.007 S 
ATOM     22  O   LIG    1       10.953   0.220   4.065  0.00  0.00    -0.173 OA
ATOM     23  O   LIG    1        9.038   1.795   4.168  0.00  0.00    -0.173 OA
ENDBRANCH  19  21
ENDBRANCH  18  19
ENDBRANCH  17  18
ENDBRANCH  16  17
ENDBRANCH  11  16
ENDBRANCH   1  13
BRANCH   9  24
ATOM     24  N   LIG    1       -0.666  -0.243  -1.123  0.00  0.00    -0.194 NA
BRANCH  24  25
ATOM     25  C   LIG    1       -1.970  -0.065  -0.662  0.00  0.00    +0.073 A 
ATOM     26  C   LIG    1       -2.273   0.087   0.694  0.00  0.00    +0.031 A 
ATOM     27  C   LIG    1       -3.567   0.260   1.082  0.00  0.00    +0.093 A 
ATOM     28 CL   LIG    1       -4.013   0.449   2.788  0.00  0.00    -0.079 Cl
ATOM     29  C   LIG    1       -4.611   0.291   0.177  0.00  0.00    +0.150 A 
ATOM     30  C   LIG    1       -4.325   0.142  -1.162  0.00  0.00    +0.039 A 
ATOM     31  C   LIG    1       -3.021  -0.031  -1.550  0.00  0.00    +0.020 A 
BRANCH  29  32
ATOM     32  O   LIG    1       -5.934   0.472   0.620  0.00  0.00    -0.470 OA
BRANCH  32  33
ATOM     33  C   LIG    1       -6.957   0.491  -0.369  0.00  0.00    +0.232 C 
BRANCH  33  34
ATOM     34  C   LIG    1       -8.242   0.692   0.339  0.00  0.00    +0.023 A 
ATOM     35  C   LIG    1       -8.306   0.955   1.691  0.00  0.00    +0.029 A 
ATOM     36  C   LIG    1       -9.552   1.137   2.299  0.00  0.00    +0.140 A 
ATOM     37  F   LIG    1       -9.668   1.400   3.627  0.00  0.00    -0.204 F 
ATOM     38  C   LIG    1      -10.708   1.055   1.560  0.00  0.00    +0.030 A 
ATOM     39  C   LIG    1      -10.649   0.796   0.224  0.00  0.00    +0.002 A 
ATOM     40  C   LIG    1       -9.414   0.616  -0.375  0.00  0.00    -0.001 A 
ENDBRANCH  33  34
ENDBRANCH  32  33
ENDBRANCH  29  32
ENDBRANCH  24  25
ENDBRANCH   9  24
TORSDOF 11
