REMARK  Name = 
REMARK                            x       y       z     vdW  Elec       q    Type
REMARK                         _______ _______ _______ _____ _____    ______ ____
ROOT
ATOM      1  C   LIG    1       -1.484  -3.028   1.586  0.00  0.00    +0.243 C 
ATOM      2  C   LIG    1       -2.579  -2.974   0.420  0.00  0.00    +0.196 C 
ATOM      3  O   LIG    1       -2.437  -4.106   0.155  0.00  0.00    -0.292 OA
ATOM      4  C   LIG    1       -3.502  -2.274  -0.320  0.00  0.00    +0.090 C 
ATOM      5  C   LIG    1       -3.752  -0.768  -0.171  0.00  0.00    +0.093 C 
ATOM      6  C   LIG    1       -5.099  -0.615  -1.006  0.00  0.00    +0.191 C 
ATOM      7  C   LIG    1       -4.469  -0.226  -2.407  0.00  0.00    +0.157 C 
ATOM      8  C   LIG    1       -3.934  -1.786  -2.719  0.00  0.00    +0.067 C 
ATOM      9  O   LIG    1       -5.788  -0.549  -3.022  0.00  0.00    -0.349 OA
ATOM     10  C   LIG    1       -5.649  -1.510  -1.989  0.00  0.00    +0.185 C 
ATOM     11  C   LIG    1       -2.832   0.309  -0.773  0.00  0.00    +0.201 C 
ATOM     12  C   LIG    1       -1.373   0.270  -0.158  0.00  0.00    +0.170 C 
ATOM     13  C   LIG    1       -1.538  -0.182   1.267  0.00  0.00    +0.048 C 
ATOM     14  C   LIG    1       -0.457   0.500   2.201  0.00  0.00    +0.007 C 
ATOM     15  C   LIG    1       -2.787   0.121   1.964  0.00  0.00    +0.007 C 
ATOM     16  O   LIG    1       -0.951   1.552   0.167  0.00  0.00    -0.222 OA
ATOM     17  C   LIG    1       -0.296  -0.315  -0.946  0.00  0.00    +0.082 C 
ATOM     18  C   LIG    1        0.725  -0.324   0.376  0.00  0.00    +0.189 C 
ATOM     19  C   LIG    1        0.155  -1.789   0.818  0.00  0.00    -0.009 C 
ATOM     20  C   LIG    1        0.840  -3.008   0.685  0.00  0.00    +0.029 C 
ATOM     21  C   LIG    1       -4.545  -3.213  -0.578  0.00  0.00    +0.010 C 
ATOM     22  C   LIG    1       -2.701  -1.927  -1.706  0.00  0.00    +0.161 C 
ATOM     23  O   LIG    1       -2.408  -3.334  -2.149  0.00  0.00    -0.223 OA
ATOM     24  C   LIG    1       -1.044  -1.514   1.254  0.00  0.00    -0.000 C 
ENDROOT
BRANCH   1  25
ATOM     25  O   LIG    1       -2.426  -2.633   2.725  0.00  0.00    -0.440 OA
BRANCH  25  27
ATOM     26  C   LIG    1       -3.947  -3.697   4.398  0.00  0.00    +0.121 C 
ATOM     27  C   LIG    1       -3.000  -3.762   3.285  0.00  0.00    +0.318 C 
ATOM     28  O   LIG    1       -2.755  -4.928   2.884  0.00  0.00    -0.250 OA
ENDBRANCH  25  27
ENDBRANCH   1  25
BRANCH   6  29
ATOM     29  O   LIG    1       -6.109  -0.114  -0.392  0.00  0.00    -0.451 OA
BRANCH  29  30
ATOM     30  C   LIG    1       -7.384   0.159  -0.635  0.00  0.00    +0.317 C 
ATOM     31  O   LIG    1       -7.903  -0.092  -1.742  0.00  0.00    -0.250 OA
ATOM     32  C   LIG    1       -8.373   0.781   0.315  0.00  0.00    +0.121 C 
ENDBRANCH  29  30
ENDBRANCH   6  29
BRANCH  11  33
ATOM     33  O   LIG    1       -3.331   1.520  -0.339  0.00  0.00    -0.446 OA
BRANCH  33  34
ATOM     34  C   LIG    1       -3.774   2.590   0.043  0.00  0.00    +0.341 C 
ATOM     35  O   LIG    1       -4.823   2.665  -0.646  0.00  0.00    -0.245 OA
BRANCH  34  36
ATOM     36  C   LIG    1       -3.615   3.742   0.903  0.00  0.00    +0.076 A 
ATOM     37  C   LIG    1       -4.576   4.781   0.879  0.00  0.00    +0.006 A 
ATOM     38  C   LIG    1       -4.459   5.881   1.683  0.00  0.00    +0.000 A 
ATOM     39  C   LIG    1       -3.409   6.038   2.554  0.00  0.00    +0.000 A 
ATOM     40  C   LIG    1       -2.434   5.035   2.611  0.00  0.00    +0.000 A 
ATOM     41  C   LIG    1       -2.611   3.955   1.776  0.00  0.00    +0.006 A 
ENDBRANCH  34  36
ENDBRANCH  33  34
ENDBRANCH  11  33
BRANCH  18  42
ATOM     42  O   LIG    1        1.992  -0.833  -0.284  0.00  0.00    -0.446 OA
BRANCH  42  43
ATOM     43  C   LIG    1        2.689   0.187  -0.742  0.00  0.00    +0.350 C 
ATOM     44  O   LIG    1        2.298   1.367  -0.616  0.00  0.00    -0.247 OA
BRANCH  43  45
ATOM     45  C   LIG    1        4.106   0.066  -1.507  0.00  0.00    +0.273 C 
ATOM     46  O   LIG    1        4.223  -1.421  -1.440  0.00  0.00    -0.209 OA
BRANCH  45  47
ATOM     47  C   LIG    1        4.956   0.330  -0.037  0.00  0.00    +0.159 C 
BRANCH  47  48
ATOM     48  C   LIG    1        5.322   1.831  -0.227  0.00  0.00    +0.000 A 
ATOM     49  C   LIG    1        4.994   2.594   0.860  0.00  0.00    -0.003 A 
ATOM     50  C   LIG    1        5.233   3.952   0.895  0.00  0.00    -0.000 A 
ATOM     51  C   LIG    1        5.818   4.512  -0.210  0.00  0.00    -0.000 A 
ATOM     52  C   LIG    1        6.151   3.762  -1.301  0.00  0.00    -0.000 A 
ATOM     53  C   LIG    1        5.881   2.403  -1.268  0.00  0.00    -0.003 A 
ENDBRANCH  47  48
BRANCH  47  54
ATOM     54  N   LIG    1        6.237  -0.341  -0.559  0.00  0.00    -0.196 NA
ATOM     55  C   LIG    1        7.439  -0.283   0.035  0.00  0.00    +0.265 C 
ATOM     56  O   LIG    1        7.581   0.355   1.100  0.00  0.00    -0.268 OA
BRANCH  55  57
ATOM     57  C   LIG    1        8.587  -0.960  -0.551  0.00  0.00    +0.055 A 
ATOM     58  C   LIG    1        9.835  -0.908   0.034  0.00  0.00    +0.005 A 
ATOM     59  C   LIG    1       10.873  -1.568  -0.572  0.00  0.00    +0.000 A 
ATOM     60  C   LIG    1       10.722  -2.283  -1.745  0.00  0.00    +0.000 A 
ATOM     61  C   LIG    1        9.465  -2.326  -2.319  0.00  0.00    +0.000 A 
ATOM     62  C   LIG    1        8.432  -1.665  -1.708  0.00  0.00    +0.005 A 
ENDBRANCH  55  57
ENDBRANCH  47  54
ENDBRANCH  45  47
ENDBRANCH  43  45
ENDBRANCH  42  43
ENDBRANCH  18  42
TORSDOF 14
