REMARK  Name = 
REMARK                            x       y       z     vdW  Elec       q    Type
REMARK                         _______ _______ _______ _____ _____    ______ ____
ROOT
ATOM      1  O   LIG    1        0.410  -2.724  -0.934  0.00  0.00    -0.346 OA
ENDROOT
BRANCH   1   7
ATOM      2  C   LIG    1        4.375   1.077   0.705  0.00  0.00    +0.398 A 
ATOM      3  N   LIG    1        4.067   1.117  -0.623  0.00  0.00    -0.128 NA
ATOM      4  C   LIG    1        3.266   0.109  -0.945  0.00  0.00    +0.306 A 
ATOM      5  O   LIG    1        2.680  -0.281  -2.158  0.00  0.00    -0.445 OA
ATOM      6  C   LIG    1        1.921  -1.475  -2.180  0.00  0.00    +0.240 C 
ATOM      7  C   LIG    1        0.952  -1.291  -0.813  0.00  0.00    +0.182 C 
ATOM      8  C   LIG    1        2.203  -1.788   0.200  0.00  0.00    +0.144 C 
ATOM      9  N   LIG    1        3.046  -0.597   0.173  0.00  0.00    -0.272 N 
ATOM     10  C   LIG    1        3.715  -0.019   1.185  0.00  0.00    +0.178 A 
BRANCH   2  12
ATOM     11  O   LIG    1        5.380   1.946   2.226  0.00  0.00    +0.043 OA
ATOM     12  N   LIG    1        5.213   1.999   1.417  0.00  0.00    +0.103 N 
ATOM     13  O   LIG    1        5.750   3.030   0.637  0.00  0.00    -0.575 OA
ENDBRANCH   2  12
ENDBRANCH   1   7
BRANCH   1  14
ATOM     14  C   LIG    1       -0.461  -2.804   0.154  0.00  0.00    +0.169 C 
BRANCH  14  15
ATOM     15  C   LIG    1       -1.538  -1.768   0.033  0.00  0.00    +0.007 A 
ATOM     16  C   LIG    1       -1.375  -0.505   0.572  0.00  0.00    +0.001 A 
ATOM     17  C   LIG    1       -2.330   0.474   0.487  0.00  0.00    +0.037 A 
ATOM     18  C   LIG    1       -3.525   0.189  -0.174  0.00  0.00    +0.147 A 
ATOM     19  C   LIG    1       -3.719  -1.052  -0.720  0.00  0.00    +0.037 A 
ATOM     20  C   LIG    1       -2.731  -2.017  -0.614  0.00  0.00    +0.001 A 
BRANCH  18  21
ATOM     21  O   LIG    1       -4.495   1.187  -0.260  0.00  0.00    -0.404 OA
BRANCH  21  22
ATOM     22  C   LIG    1       -5.469   1.271   0.783  0.00  0.00    +0.575 C 
ATOM     23  F   LIG    1       -6.328   2.317   0.513  0.00  0.00    -0.133 F 
ATOM     24  F   LIG    1       -4.845   1.534   1.998  0.00  0.00    -0.133 F 
ATOM     25  F   LIG    1       -6.162   0.073   0.822  0.00  0.00    -0.133 F 
ENDBRANCH  21  22
ENDBRANCH  18  21
ENDBRANCH  14  15
ENDBRANCH   1  14
TORSDOF 6
