REMARK  Name = 
REMARK                            x       y       z     vdW  Elec       q    Type
REMARK                         _______ _______ _______ _____ _____    ______ ____
ROOT
ATOM      1  C   LIG    1        0.289   0.038   0.007  0.00  0.00    +0.160 A 
ATOM      2  N   LIG    1       -0.336  -0.945  -0.663  0.00  0.00    -0.236 NA
ATOM      3  C   LIG    1       -1.669  -1.082  -0.665  0.00  0.00    +0.120 A 
ATOM      4  C   LIG    1       -2.484  -0.211   0.027  0.00  0.00    +0.120 A 
ATOM      5  N   LIG    1       -1.872   0.777   0.701  0.00  0.00    -0.239 NA
ATOM      6  C   LIG    1       -0.533   0.917   0.705  0.00  0.00    +0.123 A 
ENDROOT
BRANCH   1   8
ATOM      7  N   LIG    1        2.393   1.086   0.616  0.00  0.00    -0.101 NA
ATOM      8  C   LIG    1        1.738   0.171  -0.002  0.00  0.00    +0.316 C 
ATOM      9  O   LIG    1        2.473  -0.751  -0.726  0.00  0.00    -0.262 OA
ENDBRANCH   1   8
TORSDOF 1
