REMARK  Name = 
REMARK                            x       y       z     vdW  Elec       q    Type
REMARK                         _______ _______ _______ _____ _____    ______ ____
ROOT
ATOM      1  C   LIG    1        4.945   0.025   1.631  0.00  0.00    +0.072 C 
ATOM      2  C   LIG    1        3.380   0.346   1.710  0.00  0.00    +0.070 C 
ATOM      3  N   LIG    1        3.152  -0.221   3.130  0.00  0.00    -0.269 NA
ATOM      4  C   LIG    1        2.150  -1.186   3.024  0.00  0.00    +0.073 C 
ATOM      5  C   LIG    1        2.764  -2.043   1.906  0.00  0.00    +0.024 C 
ATOM      6  C   LIG    1        4.261  -0.429   3.905  0.00  0.00    +0.099 C 
ATOM      7  C   LIG    1        5.103  -1.524   3.282  0.00  0.00    -0.013 C 
ATOM      8  C   LIG    1        2.824  -0.930   0.909  0.00  0.00    +0.055 C 
ATOM      9  C   LIG    1        3.919  -1.294  -0.194  0.00  0.00    +0.120 C 
ATOM     10  C   LIG    1        4.370   0.149  -0.730  0.00  0.00    +0.268 C 
ATOM     11  O   LIG    1        5.098  -0.390  -1.813  0.00  0.00    -0.209 OA
ATOM     12  N   LIG    1        2.942  -1.523  -1.389  0.00  0.00    -0.304 N 
ATOM     13  C   LIG    1        3.399  -2.080  -2.630  0.00  0.00    +0.112 C 
ATOM     14  C   LIG    1        1.678  -1.117  -1.020  0.00  0.00    +0.047 A 
ATOM     15  C   LIG    1        0.564  -1.038  -1.820  0.00  0.00    +0.051 A 
ATOM     16  C   LIG    1       -0.672  -0.629  -1.373  0.00  0.00    +0.137 A 
ATOM     17  C   LIG    1       -0.770  -0.289  -0.055  0.00  0.00    +0.026 A 
ATOM     18  C   LIG    1        0.355  -0.372   0.738  0.00  0.00    -0.003 A 
ATOM     19  C   LIG    1        1.591  -0.780   0.292  0.00  0.00    -0.007 A 
ATOM     20  C   LIG    1        5.506   0.688   0.282  0.00  0.00    +0.213 C 
ATOM     21  C   LIG    1        5.416  -1.160   2.037  0.00  0.00    -0.025 C 
ENDROOT
BRANCH  17  22
ATOM     22  C   LIG    1       -2.106   0.137   0.494  0.00  0.00    +0.146 C 
ATOM     23  C   LIG    1       -3.146  -0.878   0.413  0.00  0.00    +0.068 A 
ATOM     24  C   LIG    1       -4.413  -0.848   0.890  0.00  0.00    -0.005 A 
ATOM     25  C   LIG    1       -5.008  -2.061   0.594  0.00  0.00    +0.015 A 
ATOM     26  C   LIG    1       -4.083  -2.816  -0.064  0.00  0.00    +0.081 A 
ATOM     27  C   LIG    1       -4.317  -4.104  -0.524  0.00  0.00    +0.019 A 
ATOM     28  C   LIG    1       -5.544  -4.661  -0.311  0.00  0.00    +0.002 A 
ATOM     29  C   LIG    1       -6.493  -3.918   0.351  0.00  0.00    +0.000 A 
ATOM     30  C   LIG    1       -6.244  -2.625   0.808  0.00  0.00    +0.001 A 
ATOM     31  C   LIG    1       -5.052   0.326   1.626  0.00  0.00    +0.045 C 
ATOM     32  C   LIG    1       -6.062   1.014   0.729  0.00  0.00    +0.077 C 
ATOM     33  N   LIG    1       -5.672   2.428   0.501  0.00  0.00    -0.270 NA
ATOM     34  C   LIG    1       -6.141   2.883  -0.762  0.00  0.00    +0.103 C 
ATOM     35  C   LIG    1       -5.164   3.114  -1.830  0.00  0.00    +0.141 C 
ATOM     36  C   LIG    1       -3.964   2.261  -1.907  0.00  0.00    +0.033 C 
ATOM     37  C   LIG    1       -3.961   1.263  -0.608  0.00  0.00    +0.020 C 
ATOM     38  O   LIG    1       -4.725   4.463  -1.877  0.00  0.00    -0.224 OA
ATOM     39  C   LIG    1       -4.228   2.524   0.414  0.00  0.00    +0.072 C 
ATOM     40  N   LIG    1       -2.987  -2.091  -0.159  0.00  0.00    -0.249 NA
ATOM     41  C   LIG    1       -2.392   1.324  -0.362  0.00  0.00    +0.022 C 
BRANCH  35  42
ATOM     42  C   LIG    1       -5.901   2.927  -3.173  0.00  0.00    +0.032 C 
ATOM     43  C   LIG    1       -6.994   4.009  -3.070  0.00  0.00    +0.003 C 
ENDBRANCH  35  42
BRANCH  22  44
ATOM     44  C   LIG    1       -1.813   0.403   1.908  0.00  0.00    +0.325 C 
ATOM     45  O   LIG    1       -2.342  -0.352   2.736  0.00  0.00    -0.249 OA
BRANCH  44  46
ATOM     46  O   LIG    1       -1.020   1.390   2.441  0.00  0.00    -0.444 OA
ATOM     47  C   LIG    1       -0.863   1.479   3.842  0.00  0.00    +0.256 C 
ENDBRANCH  44  46
ENDBRANCH  22  44
ENDBRANCH  17  22
BRANCH   1  49
ATOM     48  C   LIG    1        5.015   2.244   2.205  0.00  0.00    +0.001 C 
ATOM     49  C   LIG    1        5.448   1.151   2.591  0.00  0.00    +0.009 C 
ENDBRANCH   1  49
BRANCH  10  50
ATOM     50  C   LIG    1        3.523   1.105  -1.185  0.00  0.00    +0.350 C 
ATOM     51  O   LIG    1        3.518   1.238  -2.450  0.00  0.00    -0.247 OA
BRANCH  50  52
ATOM     52  O   LIG    1        2.619   2.030  -0.708  0.00  0.00    -0.443 OA
ATOM     53  C   LIG    1        1.838   2.942  -1.406  0.00  0.00    +0.256 C 
ENDBRANCH  50  52
ENDBRANCH  10  50
BRANCH  16  54
ATOM     54  O   LIG    1       -1.769  -0.573  -2.269  0.00  0.00    -0.472 OA
ATOM     55  C   LIG    1       -1.560  -0.949  -3.621  0.00  0.00    +0.252 C 
ENDBRANCH  16  54
BRANCH  20  56
ATOM     56  O   LIG    1        6.561  -0.352   0.027  0.00  0.00    -0.449 OA
BRANCH  56  57
ATOM     57  C   LIG    1        7.474  -0.202  -0.958  0.00  0.00    +0.318 C 
ATOM     58  O   LIG    1        7.482   0.821  -1.681  0.00  0.00    -0.250 OA
ATOM     59  C   LIG    1        8.510  -1.248  -1.226  0.00  0.00    +0.121 C 
ENDBRANCH  56  57
ENDBRANCH  20  56
TORSDOF 10
