REMARK  Name = 
REMARK                            x       y       z     vdW  Elec       q    Type
REMARK                         _______ _______ _______ _____ _____    ______ ____
ROOT
ATOM      1  C   LIG    1       -4.465   1.237   0.638  0.00  0.00    +0.072 C 
ATOM      2  C   LIG    1       -2.985   0.743   0.958  0.00  0.00    +0.070 C 
ATOM      3  N   LIG    1       -2.370   2.151   1.163  0.00  0.00    -0.269 NA
ATOM      4  C   LIG    1       -1.692   2.580   0.073  0.00  0.00    +0.073 C 
ATOM      5  C   LIG    1       -2.315   1.869  -1.139  0.00  0.00    +0.024 C 
ATOM      6  C   LIG    1       -3.294   3.095   1.633  0.00  0.00    +0.099 C 
ATOM      7  C   LIG    1       -4.112   3.475   0.409  0.00  0.00    -0.013 C 
ATOM      8  C   LIG    1       -2.370   0.632  -0.543  0.00  0.00    +0.055 C 
ATOM      9  C   LIG    1       -3.041  -0.581  -1.300  0.00  0.00    +0.127 C 
ATOM     10  C   LIG    1       -4.565  -0.142  -1.313  0.00  0.00    +0.268 C 
ATOM     11  O   LIG    1       -4.720   1.026  -1.953  0.00  0.00    -0.209 OA
ATOM     12  N   LIG    1       -2.888  -1.550  -0.182  0.00  0.00    -0.250 N 
ATOM     13  C   LIG    1       -3.779  -2.362   0.411  0.00  0.00    +0.307 C 
ATOM     14  O   LIG    1       -3.563  -3.164   1.337  0.00  0.00    -0.265 OA
ATOM     15  C   LIG    1       -1.478  -1.378   0.073  0.00  0.00    +0.053 A 
ATOM     16  C   LIG    1       -0.594  -2.349   0.476  0.00  0.00    +0.051 A 
ATOM     17  C   LIG    1        0.742  -1.971   0.635  0.00  0.00    +0.137 A 
ATOM     18  C   LIG    1        1.159  -0.695   0.404  0.00  0.00    +0.026 A 
ATOM     19  C   LIG    1        0.213   0.231   0.000  0.00  0.00    -0.003 A 
ATOM     20  C   LIG    1       -1.121  -0.076  -0.175  0.00  0.00    -0.006 A 
ATOM     21  C   LIG    1       -5.172  -0.167   0.157  0.00  0.00    +0.213 C 
ATOM     22  C   LIG    1       -4.703   2.373  -0.042  0.00  0.00    -0.025 C 
ENDROOT
BRANCH  18  23
ATOM     23  C   LIG    1        2.584  -0.364   0.637  0.00  0.00    +0.146 C 
ATOM     24  C   LIG    1        2.907   1.045   0.285  0.00  0.00    +0.068 A 
ATOM     25  C   LIG    1        4.139   1.601   0.445  0.00  0.00    -0.005 A 
ATOM     26  C   LIG    1        4.046   2.936   0.000  0.00  0.00    +0.015 A 
ATOM     27  C   LIG    1        2.746   3.151  -0.420  0.00  0.00    +0.081 A 
ATOM     28  C   LIG    1        2.402   4.409  -0.908  0.00  0.00    +0.019 A 
ATOM     29  C   LIG    1        3.310   5.443  -0.986  0.00  0.00    +0.002 A 
ATOM     30  C   LIG    1        4.598   5.234  -0.572  0.00  0.00    +0.000 A 
ATOM     31  C   LIG    1        4.929   3.992  -0.092  0.00  0.00    +0.001 A 
ATOM     32  C   LIG    1        5.372   1.012   0.967  0.00  0.00    +0.045 C 
ATOM     33  C   LIG    1        6.542   0.929   0.085  0.00  0.00    +0.077 C 
ATOM     34  N   LIG    1        6.608  -0.167  -0.825  0.00  0.00    -0.270 NA
ATOM     35  C   LIG    1        7.216  -1.377  -0.313  0.00  0.00    +0.103 C 
ATOM     36  C   LIG    1        6.647  -2.641  -0.889  0.00  0.00    +0.141 C 
ATOM     37  C   LIG    1        5.138  -2.800  -0.649  0.00  0.00    +0.033 C 
ATOM     38  C   LIG    1        4.834  -1.394   0.087  0.00  0.00    +0.020 C 
ATOM     39  O   LIG    1        7.264  -3.701  -0.183  0.00  0.00    -0.224 OA
ATOM     40  C   LIG    1        5.291  -0.520  -1.239  0.00  0.00    +0.072 C 
ATOM     41  N   LIG    1        2.102   2.012  -0.237  0.00  0.00    -0.249 NA
ATOM     42  C   LIG    1        3.290  -1.298  -0.308  0.00  0.00    +0.022 C 
BRANCH  36  43
ATOM     43  C   LIG    1        6.915  -2.814  -2.344  0.00  0.00    +0.032 C 
ATOM     44  C   LIG    1        6.305  -4.106  -2.823  0.00  0.00    +0.003 C 
ENDBRANCH  36  43
BRANCH  23  45
ATOM     45  C   LIG    1        2.870  -0.512   2.057  0.00  0.00    +0.325 C 
ATOM     46  O   LIG    1        2.969   0.594   2.721  0.00  0.00    -0.249 OA
BRANCH  45  47
ATOM     47  O   LIG    1        3.059  -1.615   2.832  0.00  0.00    -0.444 OA
ATOM     48  C   LIG    1        3.335  -1.553   4.218  0.00  0.00    +0.256 C 
ENDBRANCH  45  47
ENDBRANCH  23  45
ENDBRANCH  18  23
BRANCH   1  50
ATOM     49  C   LIG    1       -4.893   0.424   2.709  0.00  0.00    +0.001 C 
ATOM     50  C   LIG    1       -5.040   1.308   2.076  0.00  0.00    +0.009 C 
ENDBRANCH   1  50
BRANCH  10  51
ATOM     51  C   LIG    1       -5.161  -1.149  -2.207  0.00  0.00    +0.350 C 
ATOM     52  O   LIG    1       -5.020  -2.393  -2.144  0.00  0.00    -0.247 OA
BRANCH  51  53
ATOM     53  O   LIG    1       -5.991  -0.765  -3.276  0.00  0.00    -0.443 OA
ATOM     54  C   LIG    1       -6.582  -1.682  -4.155  0.00  0.00    +0.256 C 
ENDBRANCH  51  53
ENDBRANCH  10  51
BRANCH  17  55
ATOM     55  O   LIG    1        1.618  -3.008   1.046  0.00  0.00    -0.472 OA
ATOM     56  C   LIG    1        1.163  -4.316   1.278  0.00  0.00    +0.252 C 
ENDBRANCH  17  55
BRANCH  21  57
ATOM     57  O   LIG    1       -6.471   0.544  -0.174  0.00  0.00    -0.449 OA
BRANCH  57  58
ATOM     58  C   LIG    1       -7.513  -0.292  -0.433  0.00  0.00    +0.318 C 
ATOM     59  O   LIG    1       -7.591  -1.525  -0.426  0.00  0.00    -0.250 OA
ATOM     60  C   LIG    1       -8.827   0.379  -0.800  0.00  0.00    +0.121 C 
ENDBRANCH  57  58
ENDBRANCH  21  57
TORSDOF 10
