REMARK  Name = 
REMARK                            x       y       z     vdW  Elec       q    Type
REMARK                         _______ _______ _______ _____ _____    ______ ____
ROOT
ATOM      1  C   LIG    1        2.327  -0.532   0.000  0.00  0.00    +0.046 C 
ATOM      2  C   LIG    1        1.924   0.193   0.000  0.00  0.00    +0.024 C 
ATOM      3  C   LIG    1        3.102   0.886   0.000  0.00  0.00    +0.072 C 
ATOM      4  N   LIG    1        3.570   0.175   0.000  0.00  0.00    -0.274 NA
ATOM      5  C   LIG    1        4.394   0.167   0.000  0.00  0.00    +0.098 C 
ATOM      6  C   LIG    1        4.792  -0.556   0.000  0.00  0.00    -0.013 C 
ATOM      7  C   LIG    1        4.370  -1.264   0.000  0.00  0.00    -0.025 C 
ATOM      8  C   LIG    1        3.552  -1.252   0.000  0.00  0.00    +0.067 C 
ATOM      9  C   LIG    1        3.127  -1.971   0.000  0.00  0.00    +0.212 C 
ATOM     10  C   LIG    1        2.306  -1.961   0.000  0.00  0.00    +0.263 C 
ATOM     11  O   LIG    1        2.709  -2.676   0.000  0.00  0.00    -0.209 OA
ATOM     12  C   LIG    1        3.146  -0.538   0.000  0.00  0.00    +0.087 C 
ATOM     13  C   LIG    1        1.900  -1.247   0.000  0.00  0.00    +0.145 C 
ATOM     14  N   LIG    1        1.076  -1.239   0.000  0.00  0.00    -0.255 N 
ATOM     15  C   LIG    1        0.654  -1.947   0.000  0.00  0.00    +0.307 C 
ATOM     16  O   LIG    1       -0.175  -1.932   0.000  0.00  0.00    -0.265 OA
ATOM     17  C   LIG    1        0.678  -0.516   0.000  0.00  0.00    +0.053 A 
ATOM     18  C   LIG    1       -0.131  -0.542   0.000  0.00  0.00    +0.051 A 
ATOM     19  C   LIG    1       -0.555   0.170   0.000  0.00  0.00    +0.137 A 
ATOM     20  C   LIG    1       -0.158   0.887   0.000  0.00  0.00    +0.026 A 
ATOM     21  C   LIG    1        0.664   0.907   0.000  0.00  0.00    -0.003 A 
ATOM     22  C   LIG    1        1.098   0.196   0.000  0.00  0.00    -0.007 A 
ENDROOT
BRANCH  20  23
ATOM     23  C   LIG    1       -1.224   2.659   0.000  0.00  0.00    +0.146 C 
ATOM     24  C   LIG    1       -0.504   3.072   0.000  0.00  0.00    +0.022 C 
ATOM     25  C   LIG    1        0.145   2.564   0.000  0.00  0.00    +0.020 C 
ATOM     26  C   LIG    1        0.950   2.764   0.000  0.00  0.00    +0.033 C 
ATOM     27  C   LIG    1        1.299   3.505   0.000  0.00  0.00    +0.141 C 
ATOM     28  O   LIG    1        2.191   4.047   0.000  0.00  0.00    -0.224 OA
ATOM     29  C   LIG    1        0.933   4.243   0.000  0.00  0.00    +0.103 C 
ATOM     30  N   LIG    1        0.124   4.418   0.000  0.00  0.00    -0.270 NA
ATOM     31  C   LIG    1       -0.513   3.901   0.000  0.00  0.00    +0.077 C 
ATOM     32  C   LIG    1       -1.230   4.313   0.000  0.00  0.00    +0.045 C 
ATOM     33  C   LIG    1       -1.942   3.897   0.000  0.00  0.00    -0.005 A 
ATOM     34  C   LIG    1       -3.367   3.901   0.000  0.00  0.00    +0.015 A 
ATOM     35  C   LIG    1       -3.367   3.076   0.000  0.00  0.00    +0.081 A 
ATOM     36  C   LIG    1       -4.075   2.655   0.000  0.00  0.00    +0.019 A 
ATOM     37  C   LIG    1       -4.792   3.068   0.000  0.00  0.00    +0.002 A 
ATOM     38  C   LIG    1       -4.792   3.893   0.000  0.00  0.00    +0.000 A 
ATOM     39  N   LIG    1       -2.650   2.659   0.000  0.00  0.00    -0.249 NA
ATOM     40  C   LIG    1       -4.084   4.309   0.000  0.00  0.00    +0.001 A 
ATOM     41  C   LIG    1        0.537   3.538   0.000  0.00  0.00    +0.072 C 
ATOM     42  C   LIG    1       -1.942   3.072   0.000  0.00  0.00    +0.068 A 
BRANCH  23  43
ATOM     43  C   LIG    1       -1.817   1.639   0.000  0.00  0.00    +0.325 C 
ATOM     44  O   LIG    1       -1.409   0.930   0.000  0.00  0.00    -0.249 OA
BRANCH  43  45
ATOM     45  O   LIG    1       -2.638   1.643   0.000  0.00  0.00    -0.444 OA
ATOM     46  C   LIG    1       -3.050   0.934   0.000  0.00  0.00    +0.256 C 
ENDBRANCH  43  45
ENDBRANCH  23  43
BRANCH  27  47
ATOM     47  C   LIG    1        1.883   2.926   0.000  0.00  0.00    +0.032 C 
ATOM     48  C   LIG    1        2.708   2.930   0.000  0.00  0.00    +0.003 C 
ENDBRANCH  27  47
ENDBRANCH  20  23
BRANCH  10  49
ATOM     49  C   LIG    1        1.649  -3.046   0.000  0.00  0.00    +0.350 C 
ATOM     50  O   LIG    1        0.895  -3.083   0.000  0.00  0.00    -0.247 OA
BRANCH  49  51
ATOM     51  O   LIG    1        2.065  -3.768   0.000  0.00  0.00    -0.443 OA
ATOM     52  C   LIG    1        1.651  -4.418   0.000  0.00  0.00    +0.256 C 
ENDBRANCH  49  51
ENDBRANCH  10  49
BRANCH   8  53
ATOM     53  C   LIG    1        3.951  -1.970   0.000  0.00  0.00    +0.009 C 
ATOM     54  C   LIG    1        4.777  -1.972   0.000  0.00  0.00    +0.000 C 
ENDBRANCH   8  53
BRANCH  19  55
ATOM     55  O   LIG    1       -1.406   0.181   0.000  0.00  0.00    -0.472 OA
ATOM     56  C   LIG    1       -1.899  -0.651   0.000  0.00  0.00    +0.252 C 
ENDBRANCH  19  55
BRANCH   9  57
ATOM     57  O   LIG    1        3.530  -2.686   0.000  0.00  0.00    -0.449 OA
BRANCH  57  58
ATOM     58  C   LIG    1        3.188  -3.269   0.000  0.00  0.00    +0.318 C 
ATOM     59  C   LIG    1        3.519  -3.857   0.000  0.00  0.00    +0.121 C 
ATOM     60  O   LIG    1        2.513  -3.259   0.000  0.00  0.00    -0.250 OA
ENDBRANCH  57  58
ENDBRANCH   9  57
TORSDOF 10
